
**** 05/22/23 23:04:21 **** PSpice 22.1.0 (6 October 2022) **** ID# 0 ********

 ** Profile: "SCHEMATIC1-simulare_oglinda"  [ c:\users\tedy_\desktop\pcad\proiect_oglinda-pspicefiles\schematic1\simulare_oglinda.sim


 ****     CIRCUIT DESCRIPTION


******************************************************************************




** Creating circuit file "simulare_oglinda.cir" 
** WARNING: THIS AUTOMATICALLY GENERATED FILE MAY BE OVERWRITTEN BY SUBSEQUENT SIMULATIONS

*Libraries: 
* Profile Libraries :
* Local Libraries :
.LIB "../../../mydiode.lib" 
* From [PSPICE NETLIST] section of C:\Users\Tedy_\AppData\Roaming\SPB_Data\cdssetup\OrCAD_PSpice\22.1.0\PSpice.ini file:
.lib "nom.lib" 

*Analysis directives: 
.TRAN  0 1000ns 0 
.STEP LIN PARAM r 28k 13k 100 
.OPTIONS ADVCONV
.PROBE64 V(alias(*)) I(alias(*)) W(alias(*)) D(alias(*)) NOISE(alias(*)) 
.INC "..\SCHEMATIC1.net" 



**** INCLUDING SCHEMATIC1.net ****
* source PROIECT_OGLINDA
.EXTERNAL OUTPUT Vcc
.EXTERNAL OUTPUT -Vcc
.EXTERNAL OUTPUT Vref1
.EXTERNAL OUTPUT Vref2
R_Rs         OUT1 VCC R_Rs {r} TC=0,0 
.model        R_Rs RES R=1 DEV=1% TC1=0 TC2=0
R_R1         N00078 VCC R_R1 33k TC=0,0 
.model        R_R1 RES R=1 DEV=1% TC1=0 TC2=0
Q_Q1         N00078 N00078 0 BC546A 
Q_Q2         OUT1 N00078 0 BC546A 
R_R2         N01425 N02883 R_R2 1k TC=0,0 
.model        R_R2 RES R=1 DEV=1% TC1=0 TC2=0
R_R5         N01705 N01718 R_R5 2.05k TC=0,0 
.model        R_R5 RES R=1 DEV=1% TC1=0 TC2=0
R_R4         VREF1 N01705 R_R4 1k TC=0,0 
.model        R_R4 RES R=1 DEV=1% TC1=0 TC2=0
R_R7         N02012 0 R_R7 1k TC=0,0 
.model        R_R7 RES R=1 DEV=1% TC1=0 TC2=0
R_R6         N02012 VCC R_R6 4.64k TC=0,0 
.model        R_R6 RES R=1 DEV=1% TC1=0 TC2=0
R_R3         0 N02883 R_R3 2.05k TC=0,0 
.model        R_R3 RES R=1 DEV=1% TC1=0 TC2=0
V_V1         VCC 0 16V
V_V2         -VCC 0 -16V
R_R8         VREF2 N07458 R_R8 1k TC=0,0 
.model        R_R8 RES R=1 DEV=1% TC1=0 TC2=0
R_R9         N07458 N07462 R_R9 2.33k TC=0,0 
.model        R_R9 RES R=1 DEV=1% TC1=0 TC2=0
R_R10         VCC N07710 R_R10 1k TC=0,0 
.model        R_R10 RES R=1 DEV=1% TC1=0 TC2=0
R_R11         0 N07710 R_R11 1.91k TC=0,0 
.model        R_R11 RES R=1 DEV=1% TC1=0 TC2=0
R_R12         N08576 N07462 R_R12 700 TC=0,0 
.model        R_R12 RES R=1 DEV=1% TC1=0 TC2=0
R_R13         N08448 VCC R_R13 480 TC=0,0 
.model        R_R13 RES R=1 DEV=1% TC1=0 TC2=0
D_D1         N08576 0 mydiode 
D_D2         N09718 0 mydiode 
V_V3         N09718 0 16V
R_R14         N07462 N152060 R_R14 770 TC=0,0 
.model        R_R14 RES R=1 DEV=1% TC1=0 TC2=0
Q_Q3         N08448 N152060 0 BC546A 
X_U4A         N02012 VREF1 VCC -VCC VREF1 LM158
X_U4B         OUT1 N01425 VCC -VCC N01425 LM158
X_U5A         N02883 N01705 VCC -VCC N01718 LM158
X_U5B         N07458 N01718 VCC -VCC N07462 LM158
X_U6A         N07710 VREF2 VCC -VCC VREF2 LM158
.PARAM  r=13k

**** RESUMING simulare_oglinda.cir ****
.END

**** 05/22/23 23:04:21 **** PSpice 22.1.0 (6 October 2022) **** ID# 0 ********

 ** Profile: "SCHEMATIC1-simulare_oglinda"  [ c:\users\tedy_\desktop\pcad\proiect_oglinda-pspicefiles\schematic1\simulare_oglinda.sim


 ****     Diode MODEL PARAMETERS


******************************************************************************




               mydiode         X_U4A.x_lm158.dx 
          IS   45.167000E-12  800.000000E-18 
           N    3.8782                       
          RS    4.5227          1            


               X_U4A.x_lm158.dy 
          IS  800.000000E-18 
          RS    1.000000E-03 
         CJO   10.000000E-12 


               X_U4B.x_lm158.dx 
          IS  800.000000E-18 
          RS    1            


               X_U4B.x_lm158.dy 
          IS  800.000000E-18 
          RS    1.000000E-03 
         CJO   10.000000E-12 


               X_U5A.x_lm158.dx 
          IS  800.000000E-18 
          RS    1            


               X_U5A.x_lm158.dy 
          IS  800.000000E-18 
          RS    1.000000E-03 
         CJO   10.000000E-12 


               X_U5B.x_lm158.dx 
          IS  800.000000E-18 
          RS    1            


               X_U5B.x_lm158.dy 
          IS  800.000000E-18 
          RS    1.000000E-03 
         CJO   10.000000E-12 


               X_U6A.x_lm158.dx 
          IS  800.000000E-18 
          RS    1            


               X_U6A.x_lm158.dy 
          IS  800.000000E-18 
          RS    1.000000E-03 
         CJO   10.000000E-12 


**** 05/22/23 23:04:21 **** PSpice 22.1.0 (6 October 2022) **** ID# 0 ********

 ** Profile: "SCHEMATIC1-simulare_oglinda"  [ c:\users\tedy_\desktop\pcad\proiect_oglinda-pspicefiles\schematic1\simulare_oglinda.sim


 ****     BJT MODEL PARAMETERS


******************************************************************************




               BC546A          X_U4A.x_lm158.qx 
               NPN             PNP             
       LEVEL    1               1            
          IS    7.049000E-15  800.000000E-18 
          BF  253             166.7          
          NF    1               1            
         VAF  127.9                          
         IKF     .07705                      
         ISE   96.260000E-15                 
          NE    1.556                        
          BR    1               1            
          NR    1               1            
         IKR    3.321                        
         ISC  130.800000E-15                 
          NC    1.602                        
          NK     .5305                       
         ISS    0               0            
          RE    0               0            
          RC     .8766          0            
         CJE   11.500000E-12    0            
         VJE     .5              .75         
         MJE     .6715                       
         CJC    5.250000E-12    0            
         VJC     .5697           .75         
         MJC     .3147           .33         
        XCJC    1               1            
         CJS    0               0            
         VJS     .75             .75         
          TF  409.500000E-12                 
         XTF   40.12                         
         VTF   10                            
         ITF    1.994                        
          TR   10.000000E-09                 
         XTB    1.5                          
          KF    0               0            
          AF    1               1            
          CN    2.42            2.2          
           D     .87             .52         


               X_U4B.x_lm158.qx 
               PNP             
       LEVEL    1            
          IS  800.000000E-18 
          BF  166.7          
          NF    1            
          BR    1            
          NR    1            
         ISS    0            
          RE    0            
          RC    0            
         CJE    0            
         VJE     .75         
         CJC    0            
         VJC     .75         
         MJC     .33         
        XCJC    1            
         CJS    0            
         VJS     .75         
          KF    0            
          AF    1            
          CN    2.2          
           D     .52         


               X_U5A.x_lm158.qx 
               PNP             
       LEVEL    1            
          IS  800.000000E-18 
          BF  166.7          
          NF    1            
          BR    1            
          NR    1            
         ISS    0            
          RE    0            
          RC    0            
         CJE    0            
         VJE     .75         
         CJC    0            
         VJC     .75         
         MJC     .33         
        XCJC    1            
         CJS    0            
         VJS     .75         
          KF    0            
          AF    1            
          CN    2.2          
           D     .52         


               X_U5B.x_lm158.qx 
               PNP             
       LEVEL    1            
          IS  800.000000E-18 
          BF  166.7          
          NF    1            
          BR    1            
          NR    1            
         ISS    0            
          RE    0            
          RC    0            
         CJE    0            
         VJE     .75         
         CJC    0            
         VJC     .75         
         MJC     .33         
        XCJC    1            
         CJS    0            
         VJS     .75         
          KF    0            
          AF    1            
          CN    2.2          
           D     .52         


               X_U6A.x_lm158.qx 
               PNP             
       LEVEL    1            
          IS  800.000000E-18 
          BF  166.7          
          NF    1            
          BR    1            
          NR    1            
         ISS    0            
          RE    0            
          RC    0            
         CJE    0            
         VJE     .75         
         CJC    0            
         VJC     .75         
         MJC     .33         
        XCJC    1            
         CJS    0            
         VJS     .75         
          KF    0            
          AF    1            
          CN    2.2          
           D     .52         


**** 05/22/23 23:04:21 **** PSpice 22.1.0 (6 October 2022) **** ID# 0 ********

 ** Profile: "SCHEMATIC1-simulare_oglinda"  [ c:\users\tedy_\desktop\pcad\proiect_oglinda-pspicefiles\schematic1\simulare_oglinda.sim


 ****     Resistor MODEL PARAMETERS


******************************************************************************




               R_Rs            R_R1            R_R2            R_R5            
           R    1               1               1               1            


               R_R4            R_R7            R_R6            R_R3            
           R    1               1               1               1            


               R_R8            R_R9            R_R10           R_R11           
           R    1               1               1               1            


               R_R12           R_R13           R_R14           
           R    1               1               1            


**** 05/22/23 23:04:21 **** PSpice 22.1.0 (6 October 2022) **** ID# 0 ********

 ** Profile: "SCHEMATIC1-simulare_oglinda"  [ c:\users\tedy_\desktop\pcad\proiect_oglinda-pspicefiles\schematic1\simulare_oglinda.sim


 ****     INITIAL TRANSIENT SOLUTION       TEMPERATURE =   27.000 DEG C

 ****     CURRENT STEP                     PARAM R =   28.0000E+03


******************************************************************************



 NODE   VOLTAGE     NODE   VOLTAGE     NODE   VOLTAGE     NODE   VOLTAGE


(  VCC)   16.0000  ( -VCC)  -16.0000  ( OUT1)    2.8961  (VREF1)    2.8367      

(VREF2)   10.5010  (N00078)     .6442 (N01425)    2.8958 (N01705)    1.9463     

(N01718)     .1208 (N02012)    2.8369 (N02883)    1.9464 (N07458)   11.9220     

(N07462)   15.2330 (N07710)   10.5020 (N08448)     .0772 (N08576)    2.0757     

(N09718)   16.0000 (N152060)     .7874                                          

(X_U4A.x_lm158.6)-547.5E-06           (X_U4A.x_lm158.7)    2.8812               

(X_U4A.x_lm158.8)    2.8812           (X_U4A.x_lm158.9)    0.0000               

(X_U4B.x_lm158.6)-559.5E-06           (X_U4B.x_lm158.7)    2.9433               

(X_U4B.x_lm158.8)    2.9433           (X_U4B.x_lm158.9)    0.0000               

(X_U5A.x_lm158.6)-10.01E-06           (X_U5A.x_lm158.7)     .0763               

(X_U5A.x_lm158.8)     .0763           (X_U5A.x_lm158.9)    0.0000               

(X_U5B.x_lm158.6)   -1.4935           (X_U5B.x_lm158.7)   17.2640               

(X_U5B.x_lm158.8)   17.2640           (X_U5B.x_lm158.9)    0.0000               

(X_U6A.x_lm158.6)    -.0020           (X_U6A.x_lm158.7)   10.4300               

(X_U6A.x_lm158.8)   10.4300           (X_U6A.x_lm158.9)    0.0000               

(X_U4A.x_lm158.10)    3.4439          (X_U4A.x_lm158.11)  -15.9610              

(X_U4A.x_lm158.12)  -15.9610          (X_U4A.x_lm158.13)    3.4302              

(X_U4A.x_lm158.14)    3.4303          (X_U4A.x_lm158.53)   14.5000              

(X_U4A.x_lm158.54)  -15.3500          (X_U4A.x_lm158.90)     .8904              

(X_U4A.x_lm158.91)   40.0000          (X_U4A.x_lm158.92)  -40.0000              

(X_U4A.x_lm158.99)    0.0000          (X_U4B.x_lm158.10)    3.5030              

(X_U4B.x_lm158.11)  -15.9610          (X_U4B.x_lm158.12)  -15.9610              

(X_U4B.x_lm158.13)    3.4893          (X_U4B.x_lm158.14)    3.4894              

(X_U4B.x_lm158.53)   14.5000          (X_U4B.x_lm158.54)  -15.3500              

(X_U4B.x_lm158.90)     .9494          (X_U4B.x_lm158.91)   40.0000              

(X_U4B.x_lm158.92)  -40.0000          (X_U4B.x_lm158.99)    0.0000              

(X_U5A.x_lm158.10)    2.5536          (X_U5A.x_lm158.11)  -15.9610              

(X_U5A.x_lm158.12)  -15.9610          (X_U5A.x_lm158.13)    2.5399              

(X_U5A.x_lm158.14)    2.5399          (X_U5A.x_lm158.53)   14.5000              

(X_U5A.x_lm158.54)  -15.3500          (X_U5A.x_lm158.90)    -.8906              

(X_U5A.x_lm158.91)   40.0000          (X_U5A.x_lm158.92)  -40.0000              

(X_U5A.x_lm158.99)    0.0000          (X_U5B.x_lm158.10)     .7602              

(X_U5B.x_lm158.11)  -15.9210          (X_U5B.x_lm158.12)  -16.0000              

(X_U5B.x_lm158.13)     .7325          (X_U5B.x_lm158.14)     .7602              

(X_U5B.x_lm158.53)   14.5000          (X_U5B.x_lm158.54)  -15.3500              

(X_U5B.x_lm158.90)   40.6130          (X_U5B.x_lm158.91)   40.0000              

(X_U5B.x_lm158.92)  -40.0000          (X_U5B.x_lm158.99)    0.0000              

(X_U6A.x_lm158.10)   11.1070          (X_U6A.x_lm158.11)  -15.9620              

(X_U6A.x_lm158.12)  -15.9630          (X_U6A.x_lm158.13)   11.0940              

(X_U6A.x_lm158.14)   11.0940          (X_U6A.x_lm158.53)   14.5000              

(X_U6A.x_lm158.54)  -15.3500          (X_U6A.x_lm158.90)   -1.4211              

(X_U6A.x_lm158.91)   40.0000          (X_U6A.x_lm158.92)  -40.0000              

(X_U6A.x_lm158.99)    0.0000          




    VOLTAGE SOURCE CURRENTS
    NAME         CURRENT

    V_V1        -5.850E-02
    V_V2         1.769E-02
    V_V3        -2.985E+00
    X_U4A.x_lm158.vb  -5.475E-09
    X_U4A.x_lm158.vc   1.166E-11
    X_U4A.x_lm158.ve   2.029E-11
    X_U4A.x_lm158.vlim   8.904E-04
    X_U4A.x_lm158.vlp  -3.911E-11
    X_U4A.x_lm158.vln  -4.089E-11
    X_U4B.x_lm158.vb  -5.595E-09
    X_U4B.x_lm158.vc   1.161E-11
    X_U4B.x_lm158.ve   2.035E-11
    X_U4B.x_lm158.vlim   9.494E-04
    X_U4B.x_lm158.vlp  -3.905E-11
    X_U4B.x_lm158.vln  -4.095E-11
    X_U5A.x_lm158.vb  -1.001E-10
    X_U5A.x_lm158.vc   1.438E-11
    X_U5A.x_lm158.ve   1.757E-11
    X_U5A.x_lm158.vlim  -8.906E-04
    X_U5A.x_lm158.vlp  -4.089E-11
    X_U5A.x_lm158.vln  -3.911E-11
    X_U5B.x_lm158.vb  -1.493E-05
    X_U5B.x_lm158.vc  -1.635E-03
    X_U5B.x_lm158.ve   3.268E-11
    X_U5B.x_lm158.vlim   4.061E-02
    X_U5B.x_lm158.vlp   1.573E-05
    X_U5B.x_lm158.vln  -8.062E-11
    X_U6A.x_lm158.vb  -1.959E-08
    X_U6A.x_lm158.vc   4.000E-12
    X_U6A.x_lm158.ve   2.795E-11
    X_U6A.x_lm158.vlim  -1.421E-03
    X_U6A.x_lm158.vlp  -4.142E-11
    X_U6A.x_lm158.vln  -3.858E-11

    TOTAL POWER DISSIPATION   4.90E+01  WATTS


**** 05/22/23 23:04:21 **** PSpice 22.1.0 (6 October 2022) **** ID# 0 ********

 ** Profile: "SCHEMATIC1-simulare_oglinda"  [ c:\users\tedy_\desktop\pcad\proiect_oglinda-pspicefiles\schematic1\simulare_oglinda.sim


 ****     INITIAL TRANSIENT SOLUTION       TEMPERATURE =   27.000 DEG C

 ****     CURRENT STEP                     PARAM R =   27.9000E+03


******************************************************************************



 NODE   VOLTAGE     NODE   VOLTAGE     NODE   VOLTAGE     NODE   VOLTAGE


(  VCC)   16.0000  ( -VCC)  -16.0000  ( OUT1)    2.9386  (VREF1)    2.8367      

(VREF2)   10.5010  (N00078)     .6442 (N01425)    2.9384 (N01705)    1.9748     

(N01718)     .2080 (N02012)    2.8369 (N02883)    1.9750 (N07458)   11.9220     

(N07462)   15.2330 (N07710)   10.5020 (N08448)     .0772 (N08576)    2.0757     

(N09718)   16.0000 (N152060)     .7874                                          

(X_U4A.x_lm158.6)-547.1E-06           (X_U4A.x_lm158.7)    2.8798               

(X_U4A.x_lm158.8)    2.8798           (X_U4A.x_lm158.9)    0.0000               

(X_U4B.x_lm158.6)-567.7E-06           (X_U4B.x_lm158.7)    2.9865               

(X_U4B.x_lm158.8)    2.9865           (X_U4B.x_lm158.9)    0.0000               

(X_U5A.x_lm158.6)-26.86E-06           (X_U5A.x_lm158.7)     .1649               

(X_U5A.x_lm158.8)     .1649           (X_U5A.x_lm158.9)    0.0000               

(X_U5B.x_lm158.6)   -1.4927           (X_U5B.x_lm158.7)   17.2640               

(X_U5B.x_lm158.8)   17.2640           (X_U5B.x_lm158.9)    0.0000               

(X_U6A.x_lm158.6)    -.0020           (X_U6A.x_lm158.7)   10.4300               

(X_U6A.x_lm158.8)   10.4300           (X_U6A.x_lm158.9)    0.0000               

(X_U4A.x_lm158.10)    3.4439          (X_U4A.x_lm158.11)  -15.9610              

(X_U4A.x_lm158.12)  -15.9610          (X_U4A.x_lm158.13)    3.4302              

(X_U4A.x_lm158.14)    3.4303          (X_U4A.x_lm158.53)   14.5000              

(X_U4A.x_lm158.54)  -15.3500          (X_U4A.x_lm158.90)     .8618              

(X_U4A.x_lm158.91)   40.0000          (X_U4A.x_lm158.92)  -40.0000              

(X_U4A.x_lm158.99)    0.0000          (X_U4B.x_lm158.10)    3.5456              

(X_U4B.x_lm158.11)  -15.9610          (X_U4B.x_lm158.12)  -15.9610              

(X_U4B.x_lm158.13)    3.5319          (X_U4B.x_lm158.14)    3.5319              

(X_U4B.x_lm158.53)   14.5000          (X_U4B.x_lm158.54)  -15.3500              

(X_U4B.x_lm158.90)     .9633          (X_U4B.x_lm158.91)   40.0000              

(X_U4B.x_lm158.92)  -40.0000          (X_U4B.x_lm158.99)    0.0000              

(X_U5A.x_lm158.10)    2.5822          (X_U5A.x_lm158.11)  -15.9610              

(X_U5A.x_lm158.12)  -15.9610          (X_U5A.x_lm158.13)    2.5684              

(X_U5A.x_lm158.14)    2.5685          (X_U5A.x_lm158.53)   14.5000              

(X_U5A.x_lm158.54)  -15.3500          (X_U5A.x_lm158.90)    -.8620              

(X_U5A.x_lm158.91)   40.0000          (X_U5A.x_lm158.92)  -40.0000              

(X_U5A.x_lm158.99)    0.0000          (X_U5B.x_lm158.10)     .8474              

(X_U5B.x_lm158.11)  -15.9210          (X_U5B.x_lm158.12)  -16.0000              

(X_U5B.x_lm158.13)     .8197          (X_U5B.x_lm158.14)     .8474              

(X_U5B.x_lm158.53)   14.5000          (X_U5B.x_lm158.54)  -15.3500              

(X_U5B.x_lm158.90)   40.6130          (X_U5B.x_lm158.91)   40.0000              

(X_U5B.x_lm158.92)  -40.0000          (X_U5B.x_lm158.99)    0.0000              

(X_U6A.x_lm158.10)   11.1070          (X_U6A.x_lm158.11)  -15.9620              

(X_U6A.x_lm158.12)  -15.9630          (X_U6A.x_lm158.13)   11.0940              

(X_U6A.x_lm158.14)   11.0940          (X_U6A.x_lm158.53)   14.5000              

(X_U6A.x_lm158.54)  -15.3500          (X_U6A.x_lm158.90)   -1.4211              

(X_U6A.x_lm158.91)   40.0000          (X_U6A.x_lm158.92)  -40.0000              

(X_U6A.x_lm158.99)    0.0000          




    VOLTAGE SOURCE CURRENTS
    NAME         CURRENT

    V_V1        -5.850E-02
    V_V2         1.769E-02
    V_V3        -2.985E+00
    X_U4A.x_lm158.vb  -5.471E-09
    X_U4A.x_lm158.vc   1.166E-11
    X_U4A.x_lm158.ve   2.029E-11
    X_U4A.x_lm158.vlim   8.618E-04
    X_U4A.x_lm158.vlp  -3.914E-11
    X_U4A.x_lm158.vln  -4.087E-11
    X_U4B.x_lm158.vb  -5.677E-09
    X_U4B.x_lm158.vc   1.156E-11
    X_U4B.x_lm158.ve   2.039E-11
    X_U4B.x_lm158.vlim   9.633E-04
    X_U4B.x_lm158.vlp  -3.904E-11
    X_U4B.x_lm158.vln  -4.097E-11
    X_U5A.x_lm158.vb  -2.686E-10
    X_U5A.x_lm158.vc   1.429E-11
    X_U5A.x_lm158.ve   1.766E-11
    X_U5A.x_lm158.vlim  -8.620E-04
    X_U5A.x_lm158.vlp  -4.086E-11
    X_U5A.x_lm158.vln  -3.914E-11
    X_U5B.x_lm158.vb  -1.493E-05
    X_U5B.x_lm158.vc  -1.635E-03
    X_U5B.x_lm158.ve   3.268E-11
    X_U5B.x_lm158.vlim   4.061E-02
    X_U5B.x_lm158.vlp   1.572E-05
    X_U5B.x_lm158.vln  -8.062E-11
    X_U6A.x_lm158.vb  -1.959E-08
    X_U6A.x_lm158.vc   4.000E-12
    X_U6A.x_lm158.ve   2.795E-11
    X_U6A.x_lm158.vlim  -1.421E-03
    X_U6A.x_lm158.vlp  -4.142E-11
    X_U6A.x_lm158.vln  -3.858E-11

    TOTAL POWER DISSIPATION   4.90E+01  WATTS


**** 05/22/23 23:04:21 **** PSpice 22.1.0 (6 October 2022) **** ID# 0 ********

 ** Profile: "SCHEMATIC1-simulare_oglinda"  [ c:\users\tedy_\desktop\pcad\proiect_oglinda-pspicefiles\schematic1\simulare_oglinda.sim


 ****     INITIAL TRANSIENT SOLUTION       TEMPERATURE =   27.000 DEG C

 ****     CURRENT STEP                     PARAM R =   27.8000E+03


******************************************************************************



 NODE   VOLTAGE     NODE   VOLTAGE     NODE   VOLTAGE     NODE   VOLTAGE


(  VCC)   16.0000  ( -VCC)  -16.0000  ( OUT1)    2.9812  (VREF1)    2.8367      

(VREF2)   10.5010  (N00078)     .6442 (N01425)    2.9809 (N01705)    2.0034     

(N01718)     .2952 (N02012)    2.8369 (N02883)    2.0036 (N07458)   11.9220     

(N07462)   15.2330 (N07710)   10.5020 (N08448)     .0772 (N08576)    2.0757     

(N09718)   16.0000 (N152060)     .7874                                          

(X_U4A.x_lm158.6)-546.7E-06           (X_U4A.x_lm158.7)    2.8784               

(X_U4A.x_lm158.8)    2.8784           (X_U4A.x_lm158.9)    0.0000               

(X_U4B.x_lm158.6)-575.9E-06           (X_U4B.x_lm158.7)    3.0298               

(X_U4B.x_lm158.8)    3.0298           (X_U4B.x_lm158.9)    0.0000               

(X_U5A.x_lm158.6)-43.71E-06           (X_U5A.x_lm158.7)     .2535               

(X_U5A.x_lm158.8)     .2535           (X_U5A.x_lm158.9)    0.0000               

(X_U5B.x_lm158.6)   -1.4920           (X_U5B.x_lm158.7)   17.2640               

(X_U5B.x_lm158.8)   17.2640           (X_U5B.x_lm158.9)    0.0000               

(X_U6A.x_lm158.6)    -.0020           (X_U6A.x_lm158.7)   10.4300               

(X_U6A.x_lm158.8)   10.4300           (X_U6A.x_lm158.9)    0.0000               

(X_U4A.x_lm158.10)    3.4439          (X_U4A.x_lm158.11)  -15.9610              

(X_U4A.x_lm158.12)  -15.9610          (X_U4A.x_lm158.13)    3.4302              

(X_U4A.x_lm158.14)    3.4303          (X_U4A.x_lm158.53)   14.5000              

(X_U4A.x_lm158.54)  -15.3500          (X_U4A.x_lm158.90)     .8332              

(X_U4A.x_lm158.91)   40.0000          (X_U4A.x_lm158.92)  -40.0000              

(X_U4A.x_lm158.99)    0.0000          (X_U4B.x_lm158.10)    3.5881              

(X_U4B.x_lm158.11)  -15.9610          (X_U4B.x_lm158.12)  -15.9610              

(X_U4B.x_lm158.13)    3.5744          (X_U4B.x_lm158.14)    3.5745              

(X_U4B.x_lm158.53)   14.5000          (X_U4B.x_lm158.54)  -15.3500              

(X_U4B.x_lm158.90)     .9773          (X_U4B.x_lm158.91)   40.0000              

(X_U4B.x_lm158.92)  -40.0000          (X_U4B.x_lm158.99)    0.0000              

(X_U5A.x_lm158.10)    2.6108          (X_U5A.x_lm158.11)  -15.9610              

(X_U5A.x_lm158.12)  -15.9610          (X_U5A.x_lm158.13)    2.5970              

(X_U5A.x_lm158.14)    2.5971          (X_U5A.x_lm158.53)   14.5000              

(X_U5A.x_lm158.54)  -15.3500          (X_U5A.x_lm158.90)    -.8334              

(X_U5A.x_lm158.91)   40.0000          (X_U5A.x_lm158.92)  -40.0000              

(X_U5A.x_lm158.99)    0.0000          (X_U5B.x_lm158.10)     .9346              

(X_U5B.x_lm158.11)  -15.9210          (X_U5B.x_lm158.12)  -16.0000              

(X_U5B.x_lm158.13)     .9069          (X_U5B.x_lm158.14)     .9346              

(X_U5B.x_lm158.53)   14.5000          (X_U5B.x_lm158.54)  -15.3500              

(X_U5B.x_lm158.90)   40.6130          (X_U5B.x_lm158.91)   40.0000              

(X_U5B.x_lm158.92)  -40.0000          (X_U5B.x_lm158.99)    0.0000              

(X_U6A.x_lm158.10)   11.1070          (X_U6A.x_lm158.11)  -15.9620              

(X_U6A.x_lm158.12)  -15.9630          (X_U6A.x_lm158.13)   11.0940              

(X_U6A.x_lm158.14)   11.0940          (X_U6A.x_lm158.53)   14.5000              

(X_U6A.x_lm158.54)  -15.3500          (X_U6A.x_lm158.90)   -1.4211              

(X_U6A.x_lm158.91)   40.0000          (X_U6A.x_lm158.92)  -40.0000              

(X_U6A.x_lm158.99)    0.0000          




    VOLTAGE SOURCE CURRENTS
    NAME         CURRENT

    V_V1        -5.850E-02
    V_V2         1.769E-02
    V_V3        -2.985E+00
    X_U4A.x_lm158.vb  -5.467E-09
    X_U4A.x_lm158.vc   1.166E-11
    X_U4A.x_lm158.ve   2.029E-11
    X_U4A.x_lm158.vlim   8.332E-04
    X_U4A.x_lm158.vlp  -3.917E-11
    X_U4A.x_lm158.vln  -4.084E-11
    X_U4B.x_lm158.vb  -5.759E-09
    X_U4B.x_lm158.vc   1.152E-11
    X_U4B.x_lm158.ve   2.043E-11
    X_U4B.x_lm158.vlim   9.773E-04
    X_U4B.x_lm158.vlp  -3.902E-11
    X_U4B.x_lm158.vln  -4.098E-11
    X_U5A.x_lm158.vb  -4.371E-10
    X_U5A.x_lm158.vc   1.421E-11
    X_U5A.x_lm158.ve   1.775E-11
    X_U5A.x_lm158.vlim  -8.334E-04
    X_U5A.x_lm158.vlp  -4.083E-11
    X_U5A.x_lm158.vln  -3.917E-11
    X_U5B.x_lm158.vb  -1.492E-05
    X_U5B.x_lm158.vc  -1.635E-03
    X_U5B.x_lm158.ve   3.268E-11
    X_U5B.x_lm158.vlim   4.061E-02
    X_U5B.x_lm158.vlp   1.571E-05
    X_U5B.x_lm158.vln  -8.062E-11
    X_U6A.x_lm158.vb  -1.959E-08
    X_U6A.x_lm158.vc   4.000E-12
    X_U6A.x_lm158.ve   2.795E-11
    X_U6A.x_lm158.vlim  -1.421E-03
    X_U6A.x_lm158.vlp  -4.142E-11
    X_U6A.x_lm158.vln  -3.858E-11

    TOTAL POWER DISSIPATION   4.90E+01  WATTS


**** 05/22/23 23:04:21 **** PSpice 22.1.0 (6 October 2022) **** ID# 0 ********

 ** Profile: "SCHEMATIC1-simulare_oglinda"  [ c:\users\tedy_\desktop\pcad\proiect_oglinda-pspicefiles\schematic1\simulare_oglinda.sim


 ****     INITIAL TRANSIENT SOLUTION       TEMPERATURE =   27.000 DEG C

 ****     CURRENT STEP                     PARAM R =   27.7000E+03


******************************************************************************



 NODE   VOLTAGE     NODE   VOLTAGE     NODE   VOLTAGE     NODE   VOLTAGE


(  VCC)   16.0000  ( -VCC)  -16.0000  ( OUT1)    3.0237  (VREF1)    2.8367      

(VREF2)   10.5010  (N00078)     .6442 (N01425)    3.0235 (N01705)    2.0321     

(N01718)     .3825 (N02012)    2.8369 (N02883)    2.0322 (N07458)   11.9220     

(N07462)   15.2330 (N07710)   10.5020 (N08448)     .0772 (N08576)    2.0757     

(N09718)   16.0000 (N152060)     .7874                                          

(X_U4A.x_lm158.6)-546.2E-06           (X_U4A.x_lm158.7)    2.8769               

(X_U4A.x_lm158.8)    2.8769           (X_U4A.x_lm158.9)    0.0000               

(X_U4B.x_lm158.6)-584.1E-06           (X_U4B.x_lm158.7)    3.0731               

(X_U4B.x_lm158.8)    3.0731           (X_U4B.x_lm158.9)    0.0000               

(X_U5A.x_lm158.6)-60.57E-06           (X_U5A.x_lm158.7)     .3423               

(X_U5A.x_lm158.8)     .3423           (X_U5A.x_lm158.9)    0.0000               

(X_U5B.x_lm158.6)   -1.4912           (X_U5B.x_lm158.7)   17.2640               

(X_U5B.x_lm158.8)   17.2640           (X_U5B.x_lm158.9)    0.0000               

(X_U6A.x_lm158.6)    -.0020           (X_U6A.x_lm158.7)   10.4300               

(X_U6A.x_lm158.8)   10.4300           (X_U6A.x_lm158.9)    0.0000               

(X_U4A.x_lm158.10)    3.4439          (X_U4A.x_lm158.11)  -15.9610              

(X_U4A.x_lm158.12)  -15.9610          (X_U4A.x_lm158.13)    3.4302              

(X_U4A.x_lm158.14)    3.4303          (X_U4A.x_lm158.53)   14.5000              

(X_U4A.x_lm158.54)  -15.3500          (X_U4A.x_lm158.90)     .8046              

(X_U4A.x_lm158.91)   40.0000          (X_U4A.x_lm158.92)  -40.0000              

(X_U4A.x_lm158.99)    0.0000          (X_U4B.x_lm158.10)    3.6307              

(X_U4B.x_lm158.11)  -15.9610          (X_U4B.x_lm158.12)  -15.9610              

(X_U4B.x_lm158.13)    3.6170          (X_U4B.x_lm158.14)    3.6171              

(X_U4B.x_lm158.53)   14.5000          (X_U4B.x_lm158.54)  -15.3500              

(X_U4B.x_lm158.90)     .9912          (X_U4B.x_lm158.91)   40.0000              

(X_U4B.x_lm158.92)  -40.0000          (X_U4B.x_lm158.99)    0.0000              

(X_U5A.x_lm158.10)    2.6394          (X_U5A.x_lm158.11)  -15.9610              

(X_U5A.x_lm158.12)  -15.9610          (X_U5A.x_lm158.13)    2.6257              

(X_U5A.x_lm158.14)    2.6257          (X_U5A.x_lm158.53)   14.5000              

(X_U5A.x_lm158.54)  -15.3500          (X_U5A.x_lm158.90)    -.8048              

(X_U5A.x_lm158.91)   40.0000          (X_U5A.x_lm158.92)  -40.0000              

(X_U5A.x_lm158.99)    0.0000          (X_U5B.x_lm158.10)    1.0219              

(X_U5B.x_lm158.11)  -15.9210          (X_U5B.x_lm158.12)  -16.0000              

(X_U5B.x_lm158.13)     .9942          (X_U5B.x_lm158.14)    1.0219              

(X_U5B.x_lm158.53)   14.5000          (X_U5B.x_lm158.54)  -15.3500              

(X_U5B.x_lm158.90)   40.6130          (X_U5B.x_lm158.91)   40.0000              

(X_U5B.x_lm158.92)  -40.0000          (X_U5B.x_lm158.99)    0.0000              

(X_U6A.x_lm158.10)   11.1070          (X_U6A.x_lm158.11)  -15.9620              

(X_U6A.x_lm158.12)  -15.9630          (X_U6A.x_lm158.13)   11.0940              

(X_U6A.x_lm158.14)   11.0940          (X_U6A.x_lm158.53)   14.5000              

(X_U6A.x_lm158.54)  -15.3500          (X_U6A.x_lm158.90)   -1.4211              

(X_U6A.x_lm158.91)   40.0000          (X_U6A.x_lm158.92)  -40.0000              

(X_U6A.x_lm158.99)    0.0000          




    VOLTAGE SOURCE CURRENTS
    NAME         CURRENT

    V_V1        -5.850E-02
    V_V2         1.769E-02
    V_V3        -2.985E+00
    X_U4A.x_lm158.vb  -5.462E-09
    X_U4A.x_lm158.vc   1.166E-11
    X_U4A.x_lm158.ve   2.029E-11
    X_U4A.x_lm158.vlim   8.046E-04
    X_U4A.x_lm158.vlp  -3.920E-11
    X_U4A.x_lm158.vln  -4.081E-11
    X_U4B.x_lm158.vb  -5.841E-09
    X_U4B.x_lm158.vc   1.148E-11
    X_U4B.x_lm158.ve   2.048E-11
    X_U4B.x_lm158.vlim   9.912E-04
    X_U4B.x_lm158.vlp  -3.901E-11
    X_U4B.x_lm158.vln  -4.100E-11
    X_U5A.x_lm158.vb  -6.057E-10
    X_U5A.x_lm158.vc   1.412E-11
    X_U5A.x_lm158.ve   1.783E-11
    X_U5A.x_lm158.vlim  -8.048E-04
    X_U5A.x_lm158.vlp  -4.081E-11
    X_U5A.x_lm158.vln  -3.920E-11
    X_U5B.x_lm158.vb  -1.491E-05
    X_U5B.x_lm158.vc  -1.635E-03
    X_U5B.x_lm158.ve   3.268E-11
    X_U5B.x_lm158.vlim   4.061E-02
    X_U5B.x_lm158.vlp   1.570E-05
    X_U5B.x_lm158.vln  -8.062E-11
    X_U6A.x_lm158.vb  -1.959E-08
    X_U6A.x_lm158.vc   4.000E-12
    X_U6A.x_lm158.ve   2.795E-11
    X_U6A.x_lm158.vlim  -1.421E-03
    X_U6A.x_lm158.vlp  -4.142E-11
    X_U6A.x_lm158.vln  -3.858E-11

    TOTAL POWER DISSIPATION   4.90E+01  WATTS


**** 05/22/23 23:04:21 **** PSpice 22.1.0 (6 October 2022) **** ID# 0 ********

 ** Profile: "SCHEMATIC1-simulare_oglinda"  [ c:\users\tedy_\desktop\pcad\proiect_oglinda-pspicefiles\schematic1\simulare_oglinda.sim


 ****     INITIAL TRANSIENT SOLUTION       TEMPERATURE =   27.000 DEG C

 ****     CURRENT STEP                     PARAM R =   27.6000E+03


******************************************************************************



 NODE   VOLTAGE     NODE   VOLTAGE     NODE   VOLTAGE     NODE   VOLTAGE


(  VCC)   16.0000  ( -VCC)  -16.0000  ( OUT1)    3.0664  (VREF1)    2.8367      

(VREF2)   10.5010  (N00078)     .6442 (N01425)    3.0661 (N01705)    2.0607     

(N01718)     .4699 (N02012)    2.8369 (N02883)    2.0609 (N07458)   11.9220     

(N07462)   15.2330 (N07710)   10.5020 (N08448)     .0772 (N08576)    2.0757     

(N09718)   16.0000 (N152060)     .7874                                          

(X_U4A.x_lm158.6)-545.8E-06           (X_U4A.x_lm158.7)    2.8755               

(X_U4A.x_lm158.8)    2.8755           (X_U4A.x_lm158.9)    0.0000               

(X_U4B.x_lm158.6)-592.4E-06           (X_U4B.x_lm158.7)    3.1164               

(X_U4B.x_lm158.8)    3.1164           (X_U4B.x_lm158.9)    0.0000               

(X_U5A.x_lm158.6)-77.45E-06           (X_U5A.x_lm158.7)     .4310               

(X_U5A.x_lm158.8)     .4310           (X_U5A.x_lm158.9)    0.0000               

(X_U5B.x_lm158.6)   -1.4905           (X_U5B.x_lm158.7)   17.2640               

(X_U5B.x_lm158.8)   17.2640           (X_U5B.x_lm158.9)    0.0000               

(X_U6A.x_lm158.6)    -.0020           (X_U6A.x_lm158.7)   10.4300               

(X_U6A.x_lm158.8)   10.4300           (X_U6A.x_lm158.9)    0.0000               

(X_U4A.x_lm158.10)    3.4439          (X_U4A.x_lm158.11)  -15.9610              

(X_U4A.x_lm158.12)  -15.9610          (X_U4A.x_lm158.13)    3.4302              

(X_U4A.x_lm158.14)    3.4303          (X_U4A.x_lm158.53)   14.5000              

(X_U4A.x_lm158.54)  -15.3500          (X_U4A.x_lm158.90)     .7759              

(X_U4A.x_lm158.91)   40.0000          (X_U4A.x_lm158.92)  -40.0000              

(X_U4A.x_lm158.99)    0.0000          (X_U4B.x_lm158.10)    3.6733              

(X_U4B.x_lm158.11)  -15.9610          (X_U4B.x_lm158.12)  -15.9610              

(X_U4B.x_lm158.13)    3.6596          (X_U4B.x_lm158.14)    3.6597              

(X_U4B.x_lm158.53)   14.5000          (X_U4B.x_lm158.54)  -15.3500              

(X_U4B.x_lm158.90)    1.0052          (X_U4B.x_lm158.91)   40.0000              

(X_U4B.x_lm158.92)  -40.0000          (X_U4B.x_lm158.99)    0.0000              

(X_U5A.x_lm158.10)    2.6680          (X_U5A.x_lm158.11)  -15.9610              

(X_U5A.x_lm158.12)  -15.9610          (X_U5A.x_lm158.13)    2.6543              

(X_U5A.x_lm158.14)    2.6543          (X_U5A.x_lm158.53)   14.5000              

(X_U5A.x_lm158.54)  -15.3500          (X_U5A.x_lm158.90)    -.7761              

(X_U5A.x_lm158.91)   40.0000          (X_U5A.x_lm158.92)  -40.0000              

(X_U5A.x_lm158.99)    0.0000          (X_U5B.x_lm158.10)    1.1092              

(X_U5B.x_lm158.11)  -15.9210          (X_U5B.x_lm158.12)  -16.0000              

(X_U5B.x_lm158.13)    1.0815          (X_U5B.x_lm158.14)    1.1092              

(X_U5B.x_lm158.53)   14.5000          (X_U5B.x_lm158.54)  -15.3500              

(X_U5B.x_lm158.90)   40.6130          (X_U5B.x_lm158.91)   40.0000              

(X_U5B.x_lm158.92)  -40.0000          (X_U5B.x_lm158.99)    0.0000              

(X_U6A.x_lm158.10)   11.1070          (X_U6A.x_lm158.11)  -15.9620              

(X_U6A.x_lm158.12)  -15.9630          (X_U6A.x_lm158.13)   11.0940              

(X_U6A.x_lm158.14)   11.0940          (X_U6A.x_lm158.53)   14.5000              

(X_U6A.x_lm158.54)  -15.3500          (X_U6A.x_lm158.90)   -1.4211              

(X_U6A.x_lm158.91)   40.0000          (X_U6A.x_lm158.92)  -40.0000              

(X_U6A.x_lm158.99)    0.0000          




    VOLTAGE SOURCE CURRENTS
    NAME         CURRENT

    V_V1        -5.850E-02
    V_V2         1.769E-02
    V_V3        -2.985E+00
    X_U4A.x_lm158.vb  -5.458E-09
    X_U4A.x_lm158.vc   1.166E-11
    X_U4A.x_lm158.ve   2.029E-11
    X_U4A.x_lm158.vlim   7.759E-04
    X_U4A.x_lm158.vlp  -3.922E-11
    X_U4A.x_lm158.vln  -4.078E-11
    X_U4B.x_lm158.vb  -5.924E-09
    X_U4B.x_lm158.vc   1.143E-11
    X_U4B.x_lm158.ve   2.052E-11
    X_U4B.x_lm158.vlim   1.005E-03
    X_U4B.x_lm158.vlp  -3.900E-11
    X_U4B.x_lm158.vln  -4.101E-11
    X_U5A.x_lm158.vb  -7.745E-10
    X_U5A.x_lm158.vc   1.403E-11
    X_U5A.x_lm158.ve   1.792E-11
    X_U5A.x_lm158.vlim  -7.761E-04
    X_U5A.x_lm158.vlp  -4.078E-11
    X_U5A.x_lm158.vln  -3.923E-11
    X_U5B.x_lm158.vb  -1.490E-05
    X_U5B.x_lm158.vc  -1.635E-03
    X_U5B.x_lm158.ve   3.268E-11
    X_U5B.x_lm158.vlim   4.061E-02
    X_U5B.x_lm158.vlp   1.570E-05
    X_U5B.x_lm158.vln  -8.062E-11
    X_U6A.x_lm158.vb  -1.959E-08
    X_U6A.x_lm158.vc   4.000E-12
    X_U6A.x_lm158.ve   2.795E-11
    X_U6A.x_lm158.vlim  -1.421E-03
    X_U6A.x_lm158.vlp  -4.142E-11
    X_U6A.x_lm158.vln  -3.858E-11

    TOTAL POWER DISSIPATION   4.90E+01  WATTS


**** 05/22/23 23:04:21 **** PSpice 22.1.0 (6 October 2022) **** ID# 0 ********

 ** Profile: "SCHEMATIC1-simulare_oglinda"  [ c:\users\tedy_\desktop\pcad\proiect_oglinda-pspicefiles\schematic1\simulare_oglinda.sim


 ****     INITIAL TRANSIENT SOLUTION       TEMPERATURE =   27.000 DEG C

 ****     CURRENT STEP                     PARAM R =   27.5000E+03


******************************************************************************



 NODE   VOLTAGE     NODE   VOLTAGE     NODE   VOLTAGE     NODE   VOLTAGE


(  VCC)   16.0000  ( -VCC)  -16.0000  ( OUT1)    3.1090  (VREF1)    2.8367      

(VREF2)   10.5010  (N00078)     .6442 (N01425)    3.1088 (N01705)    2.0894     

(N01718)     .5573 (N02012)    2.8369 (N02883)    2.0895 (N07458)   11.9220     

(N07462)   15.2330 (N07710)   10.5020 (N08448)     .0772 (N08576)    2.0757     

(N09718)   16.0000 (N152060)     .7874                                          

(X_U4A.x_lm158.6)-545.4E-06           (X_U4A.x_lm158.7)    2.8741               

(X_U4A.x_lm158.8)    2.8741           (X_U4A.x_lm158.9)    0.0000               

(X_U4B.x_lm158.6)-600.6E-06           (X_U4B.x_lm158.7)    3.1597               

(X_U4B.x_lm158.8)    3.1597           (X_U4B.x_lm158.9)    0.0000               

(X_U5A.x_lm158.6)-94.34E-06           (X_U5A.x_lm158.7)     .5199               

(X_U5A.x_lm158.8)     .5199           (X_U5A.x_lm158.9)    0.0000               

(X_U5B.x_lm158.6)   -1.4897           (X_U5B.x_lm158.7)   17.2640               

(X_U5B.x_lm158.8)   17.2640           (X_U5B.x_lm158.9)    0.0000               

(X_U6A.x_lm158.6)    -.0020           (X_U6A.x_lm158.7)   10.4300               

(X_U6A.x_lm158.8)   10.4300           (X_U6A.x_lm158.9)    0.0000               

(X_U4A.x_lm158.10)    3.4439          (X_U4A.x_lm158.11)  -15.9610              

(X_U4A.x_lm158.12)  -15.9610          (X_U4A.x_lm158.13)    3.4302              

(X_U4A.x_lm158.14)    3.4303          (X_U4A.x_lm158.53)   14.5000              

(X_U4A.x_lm158.54)  -15.3500          (X_U4A.x_lm158.90)     .7473              

(X_U4A.x_lm158.91)   40.0000          (X_U4A.x_lm158.92)  -40.0000              

(X_U4A.x_lm158.99)    0.0000          (X_U4B.x_lm158.10)    3.7159              

(X_U4B.x_lm158.11)  -15.9610          (X_U4B.x_lm158.12)  -15.9610              

(X_U4B.x_lm158.13)    3.7022          (X_U4B.x_lm158.14)    3.7023              

(X_U4B.x_lm158.53)   14.5000          (X_U4B.x_lm158.54)  -15.3500              

(X_U4B.x_lm158.90)    1.0192          (X_U4B.x_lm158.91)   40.0000              

(X_U4B.x_lm158.92)  -40.0000          (X_U4B.x_lm158.99)    0.0000              

(X_U5A.x_lm158.10)    2.6967          (X_U5A.x_lm158.11)  -15.9610              

(X_U5A.x_lm158.12)  -15.9610          (X_U5A.x_lm158.13)    2.6829              

(X_U5A.x_lm158.14)    2.6830          (X_U5A.x_lm158.53)   14.5000              

(X_U5A.x_lm158.54)  -15.3500          (X_U5A.x_lm158.90)    -.7475              

(X_U5A.x_lm158.91)   40.0000          (X_U5A.x_lm158.92)  -40.0000              

(X_U5A.x_lm158.99)    0.0000          (X_U5B.x_lm158.10)    1.1966              

(X_U5B.x_lm158.11)  -15.9210          (X_U5B.x_lm158.12)  -16.0000              

(X_U5B.x_lm158.13)    1.1689          (X_U5B.x_lm158.14)    1.1966              

(X_U5B.x_lm158.53)   14.5000          (X_U5B.x_lm158.54)  -15.3500              

(X_U5B.x_lm158.90)   40.6130          (X_U5B.x_lm158.91)   40.0000              

(X_U5B.x_lm158.92)  -40.0000          (X_U5B.x_lm158.99)    0.0000              

(X_U6A.x_lm158.10)   11.1070          (X_U6A.x_lm158.11)  -15.9620              

(X_U6A.x_lm158.12)  -15.9630          (X_U6A.x_lm158.13)   11.0940              

(X_U6A.x_lm158.14)   11.0940          (X_U6A.x_lm158.53)   14.5000              

(X_U6A.x_lm158.54)  -15.3500          (X_U6A.x_lm158.90)   -1.4211              

(X_U6A.x_lm158.91)   40.0000          (X_U6A.x_lm158.92)  -40.0000              

(X_U6A.x_lm158.99)    0.0000          




    VOLTAGE SOURCE CURRENTS
    NAME         CURRENT

    V_V1        -5.850E-02
    V_V2         1.769E-02
    V_V3        -2.985E+00
    X_U4A.x_lm158.vb  -5.454E-09
    X_U4A.x_lm158.vc   1.166E-11
    X_U4A.x_lm158.ve   2.029E-11
    X_U4A.x_lm158.vlim   7.473E-04
    X_U4A.x_lm158.vlp  -3.925E-11
    X_U4A.x_lm158.vln  -4.075E-11
    X_U4B.x_lm158.vb  -6.006E-09
    X_U4B.x_lm158.vc   1.139E-11
    X_U4B.x_lm158.ve   2.056E-11
    X_U4B.x_lm158.vlim   1.019E-03
    X_U4B.x_lm158.vlp  -3.898E-11
    X_U4B.x_lm158.vln  -4.102E-11
    X_U5A.x_lm158.vb  -9.434E-10
    X_U5A.x_lm158.vc   1.394E-11
    X_U5A.x_lm158.ve   1.801E-11
    X_U5A.x_lm158.vlim  -7.475E-04
    X_U5A.x_lm158.vlp  -4.075E-11
    X_U5A.x_lm158.vln  -3.926E-11
    X_U5B.x_lm158.vb  -1.490E-05
    X_U5B.x_lm158.vc  -1.635E-03
    X_U5B.x_lm158.ve   3.268E-11
    X_U5B.x_lm158.vlim   4.061E-02
    X_U5B.x_lm158.vlp   1.569E-05
    X_U5B.x_lm158.vln  -8.062E-11
    X_U6A.x_lm158.vb  -1.959E-08
    X_U6A.x_lm158.vc   4.000E-12
    X_U6A.x_lm158.ve   2.795E-11
    X_U6A.x_lm158.vlim  -1.421E-03
    X_U6A.x_lm158.vlp  -4.142E-11
    X_U6A.x_lm158.vln  -3.858E-11

    TOTAL POWER DISSIPATION   4.90E+01  WATTS


**** 05/22/23 23:04:21 **** PSpice 22.1.0 (6 October 2022) **** ID# 0 ********

 ** Profile: "SCHEMATIC1-simulare_oglinda"  [ c:\users\tedy_\desktop\pcad\proiect_oglinda-pspicefiles\schematic1\simulare_oglinda.sim


 ****     INITIAL TRANSIENT SOLUTION       TEMPERATURE =   27.000 DEG C

 ****     CURRENT STEP                     PARAM R =   27.4000E+03


******************************************************************************



 NODE   VOLTAGE     NODE   VOLTAGE     NODE   VOLTAGE     NODE   VOLTAGE


(  VCC)   16.0000  ( -VCC)  -16.0000  ( OUT1)    3.1517  (VREF1)    2.8367      

(VREF2)   10.5010  (N00078)     .6442 (N01425)    3.1514 (N01705)    2.1180     

(N01718)     .6447 (N02012)    2.8369 (N02883)    2.1182 (N07458)   11.9220     

(N07462)   15.2330 (N07710)   10.5020 (N08448)     .0772 (N08576)    2.0757     

(N09718)   16.0000 (N152060)     .7874                                          

(X_U4A.x_lm158.6)-545.0E-06           (X_U4A.x_lm158.7)    2.8726               

(X_U4A.x_lm158.8)    2.8726           (X_U4A.x_lm158.9)    0.0000               

(X_U4B.x_lm158.6)-608.9E-06           (X_U4B.x_lm158.7)    3.2031               

(X_U4B.x_lm158.8)    3.2031           (X_U4B.x_lm158.9)    0.0000               

(X_U5A.x_lm158.6)-111.2E-06           (X_U5A.x_lm158.7)     .6088               

(X_U5A.x_lm158.8)     .6088           (X_U5A.x_lm158.9)    0.0000               

(X_U5B.x_lm158.6)   -1.4890           (X_U5B.x_lm158.7)   17.2640               

(X_U5B.x_lm158.8)   17.2640           (X_U5B.x_lm158.9)    0.0000               

(X_U6A.x_lm158.6)    -.0020           (X_U6A.x_lm158.7)   10.4300               

(X_U6A.x_lm158.8)   10.4300           (X_U6A.x_lm158.9)    0.0000               

(X_U4A.x_lm158.10)    3.4439          (X_U4A.x_lm158.11)  -15.9610              

(X_U4A.x_lm158.12)  -15.9610          (X_U4A.x_lm158.13)    3.4302              

(X_U4A.x_lm158.14)    3.4303          (X_U4A.x_lm158.53)   14.5000              

(X_U4A.x_lm158.54)  -15.3500          (X_U4A.x_lm158.90)     .7186              

(X_U4A.x_lm158.91)   40.0000          (X_U4A.x_lm158.92)  -40.0000              

(X_U4A.x_lm158.99)    0.0000          (X_U4B.x_lm158.10)    3.7586              

(X_U4B.x_lm158.11)  -15.9610          (X_U4B.x_lm158.12)  -15.9610              

(X_U4B.x_lm158.13)    3.7449          (X_U4B.x_lm158.14)    3.7450              

(X_U4B.x_lm158.53)   14.5000          (X_U4B.x_lm158.54)  -15.3500              

(X_U4B.x_lm158.90)    1.0332          (X_U4B.x_lm158.91)   40.0000              

(X_U4B.x_lm158.92)  -40.0000          (X_U4B.x_lm158.99)    0.0000              

(X_U5A.x_lm158.10)    2.7254          (X_U5A.x_lm158.11)  -15.9610              

(X_U5A.x_lm158.12)  -15.9610          (X_U5A.x_lm158.13)    2.7116              

(X_U5A.x_lm158.14)    2.7117          (X_U5A.x_lm158.53)   14.5000              

(X_U5A.x_lm158.54)  -15.3500          (X_U5A.x_lm158.90)    -.7188              

(X_U5A.x_lm158.91)   40.0000          (X_U5A.x_lm158.92)  -40.0000              

(X_U5A.x_lm158.99)    0.0000          (X_U5B.x_lm158.10)    1.2840              

(X_U5B.x_lm158.11)  -15.9210          (X_U5B.x_lm158.12)  -16.0000              

(X_U5B.x_lm158.13)    1.2564          (X_U5B.x_lm158.14)    1.2840              

(X_U5B.x_lm158.53)   14.5000          (X_U5B.x_lm158.54)  -15.3500              

(X_U5B.x_lm158.90)   40.6130          (X_U5B.x_lm158.91)   40.0000              

(X_U5B.x_lm158.92)  -40.0000          (X_U5B.x_lm158.99)    0.0000              

(X_U6A.x_lm158.10)   11.1070          (X_U6A.x_lm158.11)  -15.9620              

(X_U6A.x_lm158.12)  -15.9630          (X_U6A.x_lm158.13)   11.0940              

(X_U6A.x_lm158.14)   11.0940          (X_U6A.x_lm158.53)   14.5000              

(X_U6A.x_lm158.54)  -15.3500          (X_U6A.x_lm158.90)   -1.4211              

(X_U6A.x_lm158.91)   40.0000          (X_U6A.x_lm158.92)  -40.0000              

(X_U6A.x_lm158.99)    0.0000          




    VOLTAGE SOURCE CURRENTS
    NAME         CURRENT

    V_V1        -5.850E-02
    V_V2         1.769E-02
    V_V3        -2.985E+00
    X_U4A.x_lm158.vb  -5.450E-09
    X_U4A.x_lm158.vc   1.166E-11
    X_U4A.x_lm158.ve   2.029E-11
    X_U4A.x_lm158.vlim   7.186E-04
    X_U4A.x_lm158.vlp  -3.928E-11
    X_U4A.x_lm158.vln  -4.072E-11
    X_U4B.x_lm158.vb  -6.089E-09
    X_U4B.x_lm158.vc   1.135E-11
    X_U4B.x_lm158.ve   2.060E-11
    X_U4B.x_lm158.vlim   1.033E-03
    X_U4B.x_lm158.vlp  -3.897E-11
    X_U4B.x_lm158.vln  -4.104E-11
    X_U5A.x_lm158.vb  -1.112E-09
    X_U5A.x_lm158.vc   1.386E-11
    X_U5A.x_lm158.ve   1.810E-11
    X_U5A.x_lm158.vlim  -7.188E-04
    X_U5A.x_lm158.vlp  -4.072E-11
    X_U5A.x_lm158.vln  -3.929E-11
    X_U5B.x_lm158.vb  -1.489E-05
    X_U5B.x_lm158.vc  -1.635E-03
    X_U5B.x_lm158.ve   3.268E-11
    X_U5B.x_lm158.vlim   4.061E-02
    X_U5B.x_lm158.vlp   1.568E-05
    X_U5B.x_lm158.vln  -8.062E-11
    X_U6A.x_lm158.vb  -1.959E-08
    X_U6A.x_lm158.vc   4.000E-12
    X_U6A.x_lm158.ve   2.795E-11
    X_U6A.x_lm158.vlim  -1.421E-03
    X_U6A.x_lm158.vlp  -4.142E-11
    X_U6A.x_lm158.vln  -3.858E-11

    TOTAL POWER DISSIPATION   4.90E+01  WATTS


**** 05/22/23 23:04:21 **** PSpice 22.1.0 (6 October 2022) **** ID# 0 ********

 ** Profile: "SCHEMATIC1-simulare_oglinda"  [ c:\users\tedy_\desktop\pcad\proiect_oglinda-pspicefiles\schematic1\simulare_oglinda.sim


 ****     INITIAL TRANSIENT SOLUTION       TEMPERATURE =   27.000 DEG C

 ****     CURRENT STEP                     PARAM R =   27.3000E+03


******************************************************************************



 NODE   VOLTAGE     NODE   VOLTAGE     NODE   VOLTAGE     NODE   VOLTAGE


(  VCC)   16.0000  ( -VCC)  -16.0000  ( OUT1)    3.1944  (VREF1)    2.8367      

(VREF2)   10.5010  (N00078)     .6442 (N01425)    3.1941 (N01705)    2.1467     

(N01718)     .7322 (N02012)    2.8369 (N02883)    2.1469 (N07458)   11.9220     

(N07462)   15.2330 (N07710)   10.5020 (N08448)     .0772 (N08576)    2.0757     

(N09718)   16.0000 (N152060)     .7874                                          

(X_U4A.x_lm158.6)-544.6E-06           (X_U4A.x_lm158.7)    2.8712               

(X_U4A.x_lm158.8)    2.8712           (X_U4A.x_lm158.9)    0.0000               

(X_U4B.x_lm158.6)-617.1E-06           (X_U4B.x_lm158.7)    3.2465               

(X_U4B.x_lm158.8)    3.2465           (X_U4B.x_lm158.9)    0.0000               

(X_U5A.x_lm158.6)-128.1E-06           (X_U5A.x_lm158.7)     .6977               

(X_U5A.x_lm158.8)     .6977           (X_U5A.x_lm158.9)    0.0000               

(X_U5B.x_lm158.6)   -1.4882           (X_U5B.x_lm158.7)   17.2640               

(X_U5B.x_lm158.8)   17.2640           (X_U5B.x_lm158.9)    0.0000               

(X_U6A.x_lm158.6)    -.0020           (X_U6A.x_lm158.7)   10.4300               

(X_U6A.x_lm158.8)   10.4300           (X_U6A.x_lm158.9)    0.0000               

(X_U4A.x_lm158.10)    3.4439          (X_U4A.x_lm158.11)  -15.9610              

(X_U4A.x_lm158.12)  -15.9610          (X_U4A.x_lm158.13)    3.4302              

(X_U4A.x_lm158.14)    3.4303          (X_U4A.x_lm158.53)   14.5000              

(X_U4A.x_lm158.54)  -15.3500          (X_U4A.x_lm158.90)     .6899              

(X_U4A.x_lm158.91)   40.0000          (X_U4A.x_lm158.92)  -40.0000              

(X_U4A.x_lm158.99)    0.0000          (X_U4B.x_lm158.10)    3.8013              

(X_U4B.x_lm158.11)  -15.9610          (X_U4B.x_lm158.12)  -15.9610              

(X_U4B.x_lm158.13)    3.7876          (X_U4B.x_lm158.14)    3.7877              

(X_U4B.x_lm158.53)   14.5000          (X_U4B.x_lm158.54)  -15.3500              

(X_U4B.x_lm158.90)    1.0472          (X_U4B.x_lm158.91)   40.0000              

(X_U4B.x_lm158.92)  -40.0000          (X_U4B.x_lm158.99)    0.0000              

(X_U5A.x_lm158.10)    2.7541          (X_U5A.x_lm158.11)  -15.9610              

(X_U5A.x_lm158.12)  -15.9610          (X_U5A.x_lm158.13)    2.7403              

(X_U5A.x_lm158.14)    2.7404          (X_U5A.x_lm158.53)   14.5000              

(X_U5A.x_lm158.54)  -15.3500          (X_U5A.x_lm158.90)    -.6901              

(X_U5A.x_lm158.91)   40.0000          (X_U5A.x_lm158.92)  -40.0000              

(X_U5A.x_lm158.99)    0.0000          (X_U5B.x_lm158.10)    1.3715              

(X_U5B.x_lm158.11)  -15.9210          (X_U5B.x_lm158.12)  -16.0000              

(X_U5B.x_lm158.13)    1.3439          (X_U5B.x_lm158.14)    1.3715              

(X_U5B.x_lm158.53)   14.5000          (X_U5B.x_lm158.54)  -15.3500              

(X_U5B.x_lm158.90)   40.6130          (X_U5B.x_lm158.91)   40.0000              

(X_U5B.x_lm158.92)  -40.0000          (X_U5B.x_lm158.99)    0.0000              

(X_U6A.x_lm158.10)   11.1070          (X_U6A.x_lm158.11)  -15.9620              

(X_U6A.x_lm158.12)  -15.9630          (X_U6A.x_lm158.13)   11.0940              

(X_U6A.x_lm158.14)   11.0940          (X_U6A.x_lm158.53)   14.5000              

(X_U6A.x_lm158.54)  -15.3500          (X_U6A.x_lm158.90)   -1.4211              

(X_U6A.x_lm158.91)   40.0000          (X_U6A.x_lm158.92)  -40.0000              

(X_U6A.x_lm158.99)    0.0000          




    VOLTAGE SOURCE CURRENTS
    NAME         CURRENT

    V_V1        -5.850E-02
    V_V2         1.769E-02
    V_V3        -2.985E+00
    X_U4A.x_lm158.vb  -5.446E-09
    X_U4A.x_lm158.vc   1.166E-11
    X_U4A.x_lm158.ve   2.029E-11
    X_U4A.x_lm158.vlim   6.899E-04
    X_U4A.x_lm158.vlp  -3.931E-11
    X_U4A.x_lm158.vln  -4.069E-11
    X_U4B.x_lm158.vb  -6.171E-09
    X_U4B.x_lm158.vc   1.131E-11
    X_U4B.x_lm158.ve   2.065E-11
    X_U4B.x_lm158.vlim   1.047E-03
    X_U4B.x_lm158.vlp  -3.895E-11
    X_U4B.x_lm158.vln  -4.105E-11
    X_U5A.x_lm158.vb  -1.281E-09
    X_U5A.x_lm158.vc   1.377E-11
    X_U5A.x_lm158.ve   1.818E-11
    X_U5A.x_lm158.vlim  -6.901E-04
    X_U5A.x_lm158.vlp  -4.069E-11
    X_U5A.x_lm158.vln  -3.931E-11
    X_U5B.x_lm158.vb  -1.488E-05
    X_U5B.x_lm158.vc  -1.635E-03
    X_U5B.x_lm158.ve   3.268E-11
    X_U5B.x_lm158.vlim   4.061E-02
    X_U5B.x_lm158.vlp   1.567E-05
    X_U5B.x_lm158.vln  -8.062E-11
    X_U6A.x_lm158.vb  -1.959E-08
    X_U6A.x_lm158.vc   4.000E-12
    X_U6A.x_lm158.ve   2.795E-11
    X_U6A.x_lm158.vlim  -1.421E-03
    X_U6A.x_lm158.vlp  -4.142E-11
    X_U6A.x_lm158.vln  -3.858E-11

    TOTAL POWER DISSIPATION   4.90E+01  WATTS


**** 05/22/23 23:04:21 **** PSpice 22.1.0 (6 October 2022) **** ID# 0 ********

 ** Profile: "SCHEMATIC1-simulare_oglinda"  [ c:\users\tedy_\desktop\pcad\proiect_oglinda-pspicefiles\schematic1\simulare_oglinda.sim


 ****     INITIAL TRANSIENT SOLUTION       TEMPERATURE =   27.000 DEG C

 ****     CURRENT STEP                     PARAM R =   27.2000E+03


******************************************************************************



 NODE   VOLTAGE     NODE   VOLTAGE     NODE   VOLTAGE     NODE   VOLTAGE


(  VCC)   16.0000  ( -VCC)  -16.0000  ( OUT1)    3.2371  (VREF1)    2.8367      

(VREF2)   10.5010  (N00078)     .6442 (N01425)    3.2368 (N01705)    2.1755     

(N01718)     .8198 (N02012)    2.8369 (N02883)    2.1756 (N07458)   11.9220     

(N07462)   15.2330 (N07710)   10.5020 (N08448)     .0772 (N08576)    2.0757     

(N09718)   16.0000 (N152060)     .7874                                          

(X_U4A.x_lm158.6)-544.2E-06           (X_U4A.x_lm158.7)    2.8698               

(X_U4A.x_lm158.8)    2.8698           (X_U4A.x_lm158.9)    0.0000               

(X_U4B.x_lm158.6)-625.4E-06           (X_U4B.x_lm158.7)    3.2899               

(X_U4B.x_lm158.8)    3.2899           (X_U4B.x_lm158.9)    0.0000               

(X_U5A.x_lm158.6)-145.1E-06           (X_U5A.x_lm158.7)     .7867               

(X_U5A.x_lm158.8)     .7867           (X_U5A.x_lm158.9)    0.0000               

(X_U5B.x_lm158.6)   -1.4875           (X_U5B.x_lm158.7)   17.2640               

(X_U5B.x_lm158.8)   17.2640           (X_U5B.x_lm158.9)    0.0000               

(X_U6A.x_lm158.6)    -.0020           (X_U6A.x_lm158.7)   10.4300               

(X_U6A.x_lm158.8)   10.4300           (X_U6A.x_lm158.9)    0.0000               

(X_U4A.x_lm158.10)    3.4439          (X_U4A.x_lm158.11)  -15.9610              

(X_U4A.x_lm158.12)  -15.9610          (X_U4A.x_lm158.13)    3.4302              

(X_U4A.x_lm158.14)    3.4303          (X_U4A.x_lm158.53)   14.5000              

(X_U4A.x_lm158.54)  -15.3500          (X_U4A.x_lm158.90)     .6612              

(X_U4A.x_lm158.91)   40.0000          (X_U4A.x_lm158.92)  -40.0000              

(X_U4A.x_lm158.99)    0.0000          (X_U4B.x_lm158.10)    3.8440              

(X_U4B.x_lm158.11)  -15.9610          (X_U4B.x_lm158.12)  -15.9610              

(X_U4B.x_lm158.13)    3.8303          (X_U4B.x_lm158.14)    3.8304              

(X_U4B.x_lm158.53)   14.5000          (X_U4B.x_lm158.54)  -15.3500              

(X_U4B.x_lm158.90)    1.0612          (X_U4B.x_lm158.91)   40.0000              

(X_U4B.x_lm158.92)  -40.0000          (X_U4B.x_lm158.99)    0.0000              

(X_U5A.x_lm158.10)    2.7828          (X_U5A.x_lm158.11)  -15.9610              

(X_U5A.x_lm158.12)  -15.9610          (X_U5A.x_lm158.13)    2.7690              

(X_U5A.x_lm158.14)    2.7691          (X_U5A.x_lm158.53)   14.5000              

(X_U5A.x_lm158.54)  -15.3500          (X_U5A.x_lm158.90)    -.6614              

(X_U5A.x_lm158.91)   40.0000          (X_U5A.x_lm158.92)  -40.0000              

(X_U5A.x_lm158.99)    0.0000          (X_U5B.x_lm158.10)    1.4591              

(X_U5B.x_lm158.11)  -15.9210          (X_U5B.x_lm158.12)  -16.0000              

(X_U5B.x_lm158.13)    1.4314          (X_U5B.x_lm158.14)    1.4591              

(X_U5B.x_lm158.53)   14.5000          (X_U5B.x_lm158.54)  -15.3500              

(X_U5B.x_lm158.90)   40.6130          (X_U5B.x_lm158.91)   40.0000              

(X_U5B.x_lm158.92)  -40.0000          (X_U5B.x_lm158.99)    0.0000              

(X_U6A.x_lm158.10)   11.1070          (X_U6A.x_lm158.11)  -15.9620              

(X_U6A.x_lm158.12)  -15.9630          (X_U6A.x_lm158.13)   11.0940              

(X_U6A.x_lm158.14)   11.0940          (X_U6A.x_lm158.53)   14.5000              

(X_U6A.x_lm158.54)  -15.3500          (X_U6A.x_lm158.90)   -1.4211              

(X_U6A.x_lm158.91)   40.0000          (X_U6A.x_lm158.92)  -40.0000              

(X_U6A.x_lm158.99)    0.0000          




    VOLTAGE SOURCE CURRENTS
    NAME         CURRENT

    V_V1        -5.850E-02
    V_V2         1.769E-02
    V_V3        -2.985E+00
    X_U4A.x_lm158.vb  -5.442E-09
    X_U4A.x_lm158.vc   1.166E-11
    X_U4A.x_lm158.ve   2.029E-11
    X_U4A.x_lm158.vlim   6.612E-04
    X_U4A.x_lm158.vlp  -3.934E-11
    X_U4A.x_lm158.vln  -4.066E-11
    X_U4B.x_lm158.vb  -6.254E-09
    X_U4B.x_lm158.vc   1.126E-11
    X_U4B.x_lm158.ve   2.069E-11
    X_U4B.x_lm158.vlim   1.061E-03
    X_U4B.x_lm158.vlp  -3.894E-11
    X_U4B.x_lm158.vln  -4.107E-11
    X_U5A.x_lm158.vb  -1.451E-09
    X_U5A.x_lm158.vc   1.368E-11
    X_U5A.x_lm158.ve   1.827E-11
    X_U5A.x_lm158.vlim  -6.614E-04
    X_U5A.x_lm158.vlp  -4.066E-11
    X_U5A.x_lm158.vln  -3.934E-11
    X_U5B.x_lm158.vb  -1.488E-05
    X_U5B.x_lm158.vc  -1.635E-03
    X_U5B.x_lm158.ve   3.268E-11
    X_U5B.x_lm158.vlim   4.061E-02
    X_U5B.x_lm158.vlp   1.566E-05
    X_U5B.x_lm158.vln  -8.062E-11
    X_U6A.x_lm158.vb  -1.959E-08
    X_U6A.x_lm158.vc   4.000E-12
    X_U6A.x_lm158.ve   2.795E-11
    X_U6A.x_lm158.vlim  -1.421E-03
    X_U6A.x_lm158.vlp  -4.142E-11
    X_U6A.x_lm158.vln  -3.858E-11

    TOTAL POWER DISSIPATION   4.90E+01  WATTS


**** 05/22/23 23:04:21 **** PSpice 22.1.0 (6 October 2022) **** ID# 0 ********

 ** Profile: "SCHEMATIC1-simulare_oglinda"  [ c:\users\tedy_\desktop\pcad\proiect_oglinda-pspicefiles\schematic1\simulare_oglinda.sim


 ****     INITIAL TRANSIENT SOLUTION       TEMPERATURE =   27.000 DEG C

 ****     CURRENT STEP                     PARAM R =   27.1000E+03


******************************************************************************



 NODE   VOLTAGE     NODE   VOLTAGE     NODE   VOLTAGE     NODE   VOLTAGE


(  VCC)   16.0000  ( -VCC)  -16.0000  ( OUT1)    3.2799  (VREF1)    2.8367      

(VREF2)   10.5010  (N00078)     .6442 (N01425)    3.2796 (N01705)    2.2042     

(N01718)     .9075 (N02012)    2.8369 (N02883)    2.2044 (N07458)   11.9220     

(N07462)   15.2330 (N07710)   10.5020 (N08448)     .0772 (N08576)    2.0757     

(N09718)   16.0000 (N152060)     .7874                                          

(X_U4A.x_lm158.6)-543.8E-06           (X_U4A.x_lm158.7)    2.8683               

(X_U4A.x_lm158.8)    2.8683           (X_U4A.x_lm158.9)    0.0000               

(X_U4B.x_lm158.6)-633.6E-06           (X_U4B.x_lm158.7)    3.3334               

(X_U4B.x_lm158.8)    3.3334           (X_U4B.x_lm158.9)    0.0000               

(X_U5A.x_lm158.6)-162.0E-06           (X_U5A.x_lm158.7)     .8758               

(X_U5A.x_lm158.8)     .8758           (X_U5A.x_lm158.9)    0.0000               

(X_U5B.x_lm158.6)   -1.4867           (X_U5B.x_lm158.7)   17.2640               

(X_U5B.x_lm158.8)   17.2640           (X_U5B.x_lm158.9)    0.0000               

(X_U6A.x_lm158.6)    -.0020           (X_U6A.x_lm158.7)   10.4300               

(X_U6A.x_lm158.8)   10.4300           (X_U6A.x_lm158.9)    0.0000               

(X_U4A.x_lm158.10)    3.4439          (X_U4A.x_lm158.11)  -15.9610              

(X_U4A.x_lm158.12)  -15.9610          (X_U4A.x_lm158.13)    3.4302              

(X_U4A.x_lm158.14)    3.4303          (X_U4A.x_lm158.53)   14.5000              

(X_U4A.x_lm158.54)  -15.3500          (X_U4A.x_lm158.90)     .6325              

(X_U4A.x_lm158.91)   40.0000          (X_U4A.x_lm158.92)  -40.0000              

(X_U4A.x_lm158.99)    0.0000          (X_U4B.x_lm158.10)    3.8867              

(X_U4B.x_lm158.11)  -15.9610          (X_U4B.x_lm158.12)  -15.9610              

(X_U4B.x_lm158.13)    3.8731          (X_U4B.x_lm158.14)    3.8731              

(X_U4B.x_lm158.53)   14.5000          (X_U4B.x_lm158.54)  -15.3500              

(X_U4B.x_lm158.90)    1.0752          (X_U4B.x_lm158.91)   40.0000              

(X_U4B.x_lm158.92)  -40.0000          (X_U4B.x_lm158.99)    0.0000              

(X_U5A.x_lm158.10)    2.8115          (X_U5A.x_lm158.11)  -15.9610              

(X_U5A.x_lm158.12)  -15.9610          (X_U5A.x_lm158.13)    2.7977              

(X_U5A.x_lm158.14)    2.7978          (X_U5A.x_lm158.53)   14.5000              

(X_U5A.x_lm158.54)  -15.3500          (X_U5A.x_lm158.90)    -.6326              

(X_U5A.x_lm158.91)   40.0000          (X_U5A.x_lm158.92)  -40.0000              

(X_U5A.x_lm158.99)    0.0000          (X_U5B.x_lm158.10)    1.5467              

(X_U5B.x_lm158.11)  -15.9210          (X_U5B.x_lm158.12)  -16.0000              

(X_U5B.x_lm158.13)    1.5191          (X_U5B.x_lm158.14)    1.5467              

(X_U5B.x_lm158.53)   14.5000          (X_U5B.x_lm158.54)  -15.3500              

(X_U5B.x_lm158.90)   40.6130          (X_U5B.x_lm158.91)   40.0000              

(X_U5B.x_lm158.92)  -40.0000          (X_U5B.x_lm158.99)    0.0000              

(X_U6A.x_lm158.10)   11.1070          (X_U6A.x_lm158.11)  -15.9620              

(X_U6A.x_lm158.12)  -15.9630          (X_U6A.x_lm158.13)   11.0940              

(X_U6A.x_lm158.14)   11.0940          (X_U6A.x_lm158.53)   14.5000              

(X_U6A.x_lm158.54)  -15.3500          (X_U6A.x_lm158.90)   -1.4211              

(X_U6A.x_lm158.91)   40.0000          (X_U6A.x_lm158.92)  -40.0000              

(X_U6A.x_lm158.99)    0.0000          




    VOLTAGE SOURCE CURRENTS
    NAME         CURRENT

    V_V1        -5.850E-02
    V_V2         1.769E-02
    V_V3        -2.985E+00
    X_U4A.x_lm158.vb  -5.438E-09
    X_U4A.x_lm158.vc   1.166E-11
    X_U4A.x_lm158.ve   2.029E-11
    X_U4A.x_lm158.vlim   6.325E-04
    X_U4A.x_lm158.vlp  -3.937E-11
    X_U4A.x_lm158.vln  -4.064E-11
    X_U4B.x_lm158.vb  -6.336E-09
    X_U4B.x_lm158.vc   1.122E-11
    X_U4B.x_lm158.ve   2.073E-11
    X_U4B.x_lm158.vlim   1.075E-03
    X_U4B.x_lm158.vlp  -3.893E-11
    X_U4B.x_lm158.vln  -4.108E-11
    X_U5A.x_lm158.vb  -1.620E-09
    X_U5A.x_lm158.vc   1.359E-11
    X_U5A.x_lm158.ve   1.836E-11
    X_U5A.x_lm158.vlim  -6.326E-04
    X_U5A.x_lm158.vlp  -4.063E-11
    X_U5A.x_lm158.vln  -3.937E-11
    X_U5B.x_lm158.vb  -1.487E-05
    X_U5B.x_lm158.vc  -1.635E-03
    X_U5B.x_lm158.ve   3.268E-11
    X_U5B.x_lm158.vlim   4.061E-02
    X_U5B.x_lm158.vlp   1.566E-05
    X_U5B.x_lm158.vln  -8.062E-11
    X_U6A.x_lm158.vb  -1.959E-08
    X_U6A.x_lm158.vc   4.000E-12
    X_U6A.x_lm158.ve   2.795E-11
    X_U6A.x_lm158.vlim  -1.421E-03
    X_U6A.x_lm158.vlp  -4.142E-11
    X_U6A.x_lm158.vln  -3.858E-11

    TOTAL POWER DISSIPATION   4.90E+01  WATTS


**** 05/22/23 23:04:21 **** PSpice 22.1.0 (6 October 2022) **** ID# 0 ********

 ** Profile: "SCHEMATIC1-simulare_oglinda"  [ c:\users\tedy_\desktop\pcad\proiect_oglinda-pspicefiles\schematic1\simulare_oglinda.sim


 ****     INITIAL TRANSIENT SOLUTION       TEMPERATURE =   27.000 DEG C

 ****     CURRENT STEP                     PARAM R =   27.0000E+03


******************************************************************************



 NODE   VOLTAGE     NODE   VOLTAGE     NODE   VOLTAGE     NODE   VOLTAGE


(  VCC)   16.0000  ( -VCC)  -16.0000  ( OUT1)    3.3226  (VREF1)    2.8367      

(VREF2)   10.5010  (N00078)     .6442 (N01425)    3.3224 (N01705)    2.2329     

(N01718)     .9951 (N02012)    2.8369 (N02883)    2.2331 (N07458)   11.9220     

(N07462)   15.2330 (N07710)   10.5020 (N08448)     .0772 (N08576)    2.0757     

(N09718)   16.0000 (N152060)     .7874                                          

(X_U4A.x_lm158.6)-543.4E-06           (X_U4A.x_lm158.7)    2.8669               

(X_U4A.x_lm158.8)    2.8669           (X_U4A.x_lm158.9)    0.0000               

(X_U4B.x_lm158.6)-641.9E-06           (X_U4B.x_lm158.7)    3.3768               

(X_U4B.x_lm158.8)    3.3768           (X_U4B.x_lm158.9)    0.0000               

(X_U5A.x_lm158.6)-178.9E-06           (X_U5A.x_lm158.7)     .9649               

(X_U5A.x_lm158.8)     .9649           (X_U5A.x_lm158.9)    0.0000               

(X_U5B.x_lm158.6)   -1.4860           (X_U5B.x_lm158.7)   17.2640               

(X_U5B.x_lm158.8)   17.2640           (X_U5B.x_lm158.9)    0.0000               

(X_U6A.x_lm158.6)    -.0020           (X_U6A.x_lm158.7)   10.4300               

(X_U6A.x_lm158.8)   10.4300           (X_U6A.x_lm158.9)    0.0000               

(X_U4A.x_lm158.10)    3.4439          (X_U4A.x_lm158.11)  -15.9610              

(X_U4A.x_lm158.12)  -15.9610          (X_U4A.x_lm158.13)    3.4302              

(X_U4A.x_lm158.14)    3.4303          (X_U4A.x_lm158.53)   14.5000              

(X_U4A.x_lm158.54)  -15.3500          (X_U4A.x_lm158.90)     .6037              

(X_U4A.x_lm158.91)   40.0000          (X_U4A.x_lm158.92)  -40.0000              

(X_U4A.x_lm158.99)    0.0000          (X_U4B.x_lm158.10)    3.9295              

(X_U4B.x_lm158.11)  -15.9610          (X_U4B.x_lm158.12)  -15.9610              

(X_U4B.x_lm158.13)    3.9158          (X_U4B.x_lm158.14)    3.9159              

(X_U4B.x_lm158.53)   14.5000          (X_U4B.x_lm158.54)  -15.3500              

(X_U4B.x_lm158.90)    1.0892          (X_U4B.x_lm158.91)   40.0000              

(X_U4B.x_lm158.92)  -40.0000          (X_U4B.x_lm158.99)    0.0000              

(X_U5A.x_lm158.10)    2.8402          (X_U5A.x_lm158.11)  -15.9610              

(X_U5A.x_lm158.12)  -15.9610          (X_U5A.x_lm158.13)    2.8265              

(X_U5A.x_lm158.14)    2.8266          (X_U5A.x_lm158.53)   14.5000              

(X_U5A.x_lm158.54)  -15.3500          (X_U5A.x_lm158.90)    -.6039              

(X_U5A.x_lm158.91)   40.0000          (X_U5A.x_lm158.92)  -40.0000              

(X_U5A.x_lm158.99)    0.0000          (X_U5B.x_lm158.10)    1.6343              

(X_U5B.x_lm158.11)  -15.9210          (X_U5B.x_lm158.12)  -16.0000              

(X_U5B.x_lm158.13)    1.6067          (X_U5B.x_lm158.14)    1.6343              

(X_U5B.x_lm158.53)   14.5000          (X_U5B.x_lm158.54)  -15.3500              

(X_U5B.x_lm158.90)   40.6130          (X_U5B.x_lm158.91)   40.0000              

(X_U5B.x_lm158.92)  -40.0000          (X_U5B.x_lm158.99)    0.0000              

(X_U6A.x_lm158.10)   11.1070          (X_U6A.x_lm158.11)  -15.9620              

(X_U6A.x_lm158.12)  -15.9630          (X_U6A.x_lm158.13)   11.0940              

(X_U6A.x_lm158.14)   11.0940          (X_U6A.x_lm158.53)   14.5000              

(X_U6A.x_lm158.54)  -15.3500          (X_U6A.x_lm158.90)   -1.4211              

(X_U6A.x_lm158.91)   40.0000          (X_U6A.x_lm158.92)  -40.0000              

(X_U6A.x_lm158.99)    0.0000          




    VOLTAGE SOURCE CURRENTS
    NAME         CURRENT

    V_V1        -5.850E-02
    V_V2         1.769E-02
    V_V3        -2.985E+00
    X_U4A.x_lm158.vb  -5.434E-09
    X_U4A.x_lm158.vc   1.166E-11
    X_U4A.x_lm158.ve   2.029E-11
    X_U4A.x_lm158.vlim   6.037E-04
    X_U4A.x_lm158.vlp  -3.940E-11
    X_U4A.x_lm158.vln  -4.061E-11
    X_U4B.x_lm158.vb  -6.419E-09
    X_U4B.x_lm158.vc   1.118E-11
    X_U4B.x_lm158.ve   2.077E-11
    X_U4B.x_lm158.vlim   1.089E-03
    X_U4B.x_lm158.vlp  -3.891E-11
    X_U4B.x_lm158.vln  -4.109E-11
    X_U5A.x_lm158.vb  -1.789E-09
    X_U5A.x_lm158.vc   1.351E-11
    X_U5A.x_lm158.ve   1.845E-11
    X_U5A.x_lm158.vlim  -6.039E-04
    X_U5A.x_lm158.vlp  -4.060E-11
    X_U5A.x_lm158.vln  -3.940E-11
    X_U5B.x_lm158.vb  -1.486E-05
    X_U5B.x_lm158.vc  -1.635E-03
    X_U5B.x_lm158.ve   3.268E-11
    X_U5B.x_lm158.vlim   4.061E-02
    X_U5B.x_lm158.vlp   1.565E-05
    X_U5B.x_lm158.vln  -8.062E-11
    X_U6A.x_lm158.vb  -1.959E-08
    X_U6A.x_lm158.vc   4.000E-12
    X_U6A.x_lm158.ve   2.795E-11
    X_U6A.x_lm158.vlim  -1.421E-03
    X_U6A.x_lm158.vlp  -4.142E-11
    X_U6A.x_lm158.vln  -3.858E-11

    TOTAL POWER DISSIPATION   4.90E+01  WATTS


**** 05/22/23 23:04:21 **** PSpice 22.1.0 (6 October 2022) **** ID# 0 ********

 ** Profile: "SCHEMATIC1-simulare_oglinda"  [ c:\users\tedy_\desktop\pcad\proiect_oglinda-pspicefiles\schematic1\simulare_oglinda.sim


 ****     INITIAL TRANSIENT SOLUTION       TEMPERATURE =   27.000 DEG C

 ****     CURRENT STEP                     PARAM R =   26.9000E+03


******************************************************************************



 NODE   VOLTAGE     NODE   VOLTAGE     NODE   VOLTAGE     NODE   VOLTAGE


(  VCC)   16.0000  ( -VCC)  -16.0000  ( OUT1)    3.3655  (VREF1)    2.8367      

(VREF2)   10.5010  (N00078)     .6442 (N01425)    3.3652 (N01705)    2.2617     

(N01718)    1.0829 (N02012)    2.8369 (N02883)    2.2619 (N07458)   11.9220     

(N07462)   15.2330 (N07710)   10.5020 (N08448)     .0772 (N08576)    2.0757     

(N09718)   16.0000 (N152060)     .7874                                          

(X_U4A.x_lm158.6)-543.0E-06           (X_U4A.x_lm158.7)    2.8654               

(X_U4A.x_lm158.8)    2.8654           (X_U4A.x_lm158.9)    0.0000               

(X_U4B.x_lm158.6)-650.1E-06           (X_U4B.x_lm158.7)    3.4204               

(X_U4B.x_lm158.8)    3.4204           (X_U4B.x_lm158.9)    0.0000               

(X_U5A.x_lm158.6)-195.9E-06           (X_U5A.x_lm158.7)    1.0541               

(X_U5A.x_lm158.8)    1.0541           (X_U5A.x_lm158.9)    0.0000               

(X_U5B.x_lm158.6)   -1.4852           (X_U5B.x_lm158.7)   17.2640               

(X_U5B.x_lm158.8)   17.2640           (X_U5B.x_lm158.9)    0.0000               

(X_U6A.x_lm158.6)    -.0020           (X_U6A.x_lm158.7)   10.4300               

(X_U6A.x_lm158.8)   10.4300           (X_U6A.x_lm158.9)    0.0000               

(X_U4A.x_lm158.10)    3.4439          (X_U4A.x_lm158.11)  -15.9610              

(X_U4A.x_lm158.12)  -15.9610          (X_U4A.x_lm158.13)    3.4302              

(X_U4A.x_lm158.14)    3.4303          (X_U4A.x_lm158.53)   14.5000              

(X_U4A.x_lm158.54)  -15.3500          (X_U4A.x_lm158.90)     .5749              

(X_U4A.x_lm158.91)   40.0000          (X_U4A.x_lm158.92)  -40.0000              

(X_U4A.x_lm158.99)    0.0000          (X_U4B.x_lm158.10)    3.9723              

(X_U4B.x_lm158.11)  -15.9610          (X_U4B.x_lm158.12)  -15.9610              

(X_U4B.x_lm158.13)    3.9586          (X_U4B.x_lm158.14)    3.9587              

(X_U4B.x_lm158.53)   14.5000          (X_U4B.x_lm158.54)  -15.3500              

(X_U4B.x_lm158.90)    1.1033          (X_U4B.x_lm158.91)   40.0000              

(X_U4B.x_lm158.92)  -40.0000          (X_U4B.x_lm158.99)    0.0000              

(X_U5A.x_lm158.10)    2.8690          (X_U5A.x_lm158.11)  -15.9610              

(X_U5A.x_lm158.12)  -15.9610          (X_U5A.x_lm158.13)    2.8553              

(X_U5A.x_lm158.14)    2.8553          (X_U5A.x_lm158.53)   14.5000              

(X_U5A.x_lm158.54)  -15.3500          (X_U5A.x_lm158.90)    -.5751              

(X_U5A.x_lm158.91)   40.0000          (X_U5A.x_lm158.92)  -40.0000              

(X_U5A.x_lm158.99)    0.0000          (X_U5B.x_lm158.10)    1.7221              

(X_U5B.x_lm158.11)  -15.9210          (X_U5B.x_lm158.12)  -16.0000              

(X_U5B.x_lm158.13)    1.6945          (X_U5B.x_lm158.14)    1.7221              

(X_U5B.x_lm158.53)   14.5000          (X_U5B.x_lm158.54)  -15.3500              

(X_U5B.x_lm158.90)   40.6130          (X_U5B.x_lm158.91)   40.0000              

(X_U5B.x_lm158.92)  -40.0000          (X_U5B.x_lm158.99)    0.0000              

(X_U6A.x_lm158.10)   11.1070          (X_U6A.x_lm158.11)  -15.9620              

(X_U6A.x_lm158.12)  -15.9630          (X_U6A.x_lm158.13)   11.0940              

(X_U6A.x_lm158.14)   11.0940          (X_U6A.x_lm158.53)   14.5000              

(X_U6A.x_lm158.54)  -15.3500          (X_U6A.x_lm158.90)   -1.4211              

(X_U6A.x_lm158.91)   40.0000          (X_U6A.x_lm158.92)  -40.0000              

(X_U6A.x_lm158.99)    0.0000          




    VOLTAGE SOURCE CURRENTS
    NAME         CURRENT

    V_V1        -5.850E-02
    V_V2         1.769E-02
    V_V3        -2.985E+00
    X_U4A.x_lm158.vb  -5.430E-09
    X_U4A.x_lm158.vc   1.166E-11
    X_U4A.x_lm158.ve   2.029E-11
    X_U4A.x_lm158.vlim   5.749E-04
    X_U4A.x_lm158.vlp  -3.943E-11
    X_U4A.x_lm158.vln  -4.058E-11
    X_U4B.x_lm158.vb  -6.501E-09
    X_U4B.x_lm158.vc   1.114E-11
    X_U4B.x_lm158.ve   2.082E-11
    X_U4B.x_lm158.vlim   1.103E-03
    X_U4B.x_lm158.vlp  -3.890E-11
    X_U4B.x_lm158.vln  -4.111E-11
    X_U5A.x_lm158.vb  -1.959E-09
    X_U5A.x_lm158.vc   1.342E-11
    X_U5A.x_lm158.ve   1.853E-11
    X_U5A.x_lm158.vlim  -5.751E-04
    X_U5A.x_lm158.vlp  -4.058E-11
    X_U5A.x_lm158.vln  -3.943E-11
    X_U5B.x_lm158.vb  -1.485E-05
    X_U5B.x_lm158.vc  -1.635E-03
    X_U5B.x_lm158.ve   3.268E-11
    X_U5B.x_lm158.vlim   4.061E-02
    X_U5B.x_lm158.vlp   1.564E-05
    X_U5B.x_lm158.vln  -8.062E-11
    X_U6A.x_lm158.vb  -1.959E-08
    X_U6A.x_lm158.vc   4.000E-12
    X_U6A.x_lm158.ve   2.795E-11
    X_U6A.x_lm158.vlim  -1.421E-03
    X_U6A.x_lm158.vlp  -4.142E-11
    X_U6A.x_lm158.vln  -3.858E-11

    TOTAL POWER DISSIPATION   4.90E+01  WATTS


**** 05/22/23 23:04:21 **** PSpice 22.1.0 (6 October 2022) **** ID# 0 ********

 ** Profile: "SCHEMATIC1-simulare_oglinda"  [ c:\users\tedy_\desktop\pcad\proiect_oglinda-pspicefiles\schematic1\simulare_oglinda.sim


 ****     INITIAL TRANSIENT SOLUTION       TEMPERATURE =   27.000 DEG C

 ****     CURRENT STEP                     PARAM R =   26.8000E+03


******************************************************************************



 NODE   VOLTAGE     NODE   VOLTAGE     NODE   VOLTAGE     NODE   VOLTAGE


(  VCC)   16.0000  ( -VCC)  -16.0000  ( OUT1)    3.4083  (VREF1)    2.8367      

(VREF2)   10.5010  (N00078)     .6442 (N01425)    3.4080 (N01705)    2.2905     

(N01718)    1.1707 (N02012)    2.8369 (N02883)    2.2907 (N07458)   11.9220     

(N07462)   15.2330 (N07710)   10.5020 (N08448)     .0772 (N08576)    2.0757     

(N09718)   16.0000 (N152060)     .7874                                          

(X_U4A.x_lm158.6)-542.5E-06           (X_U4A.x_lm158.7)    2.8640               

(X_U4A.x_lm158.8)    2.8640           (X_U4A.x_lm158.9)    0.0000               

(X_U4B.x_lm158.6)-658.4E-06           (X_U4B.x_lm158.7)    3.4639               

(X_U4B.x_lm158.8)    3.4639           (X_U4B.x_lm158.9)    0.0000               

(X_U5A.x_lm158.6)-212.9E-06           (X_U5A.x_lm158.7)    1.1434               

(X_U5A.x_lm158.8)    1.1434           (X_U5A.x_lm158.9)    0.0000               

(X_U5B.x_lm158.6)   -1.4845           (X_U5B.x_lm158.7)   17.2640               

(X_U5B.x_lm158.8)   17.2640           (X_U5B.x_lm158.9)    0.0000               

(X_U6A.x_lm158.6)    -.0020           (X_U6A.x_lm158.7)   10.4300               

(X_U6A.x_lm158.8)   10.4300           (X_U6A.x_lm158.9)    0.0000               

(X_U4A.x_lm158.10)    3.4439          (X_U4A.x_lm158.11)  -15.9610              

(X_U4A.x_lm158.12)  -15.9610          (X_U4A.x_lm158.13)    3.4302              

(X_U4A.x_lm158.14)    3.4303          (X_U4A.x_lm158.53)   14.5000              

(X_U4A.x_lm158.54)  -15.3500          (X_U4A.x_lm158.90)     .5462              

(X_U4A.x_lm158.91)   40.0000          (X_U4A.x_lm158.92)  -40.0000              

(X_U4A.x_lm158.99)    0.0000          (X_U4B.x_lm158.10)    4.0152              

(X_U4B.x_lm158.11)  -15.9610          (X_U4B.x_lm158.12)  -15.9610              

(X_U4B.x_lm158.13)    4.0015          (X_U4B.x_lm158.14)    4.0016              

(X_U4B.x_lm158.53)   14.5000          (X_U4B.x_lm158.54)  -15.3500              

(X_U4B.x_lm158.90)    1.1173          (X_U4B.x_lm158.91)   40.0000              

(X_U4B.x_lm158.92)  -40.0000          (X_U4B.x_lm158.99)    0.0000              

(X_U5A.x_lm158.10)    2.8978          (X_U5A.x_lm158.11)  -15.9610              

(X_U5A.x_lm158.12)  -15.9610          (X_U5A.x_lm158.13)    2.8841              

(X_U5A.x_lm158.14)    2.8841          (X_U5A.x_lm158.53)   14.5000              

(X_U5A.x_lm158.54)  -15.3500          (X_U5A.x_lm158.90)    -.5463              

(X_U5A.x_lm158.91)   40.0000          (X_U5A.x_lm158.92)  -40.0000              

(X_U5A.x_lm158.99)    0.0000          (X_U5B.x_lm158.10)    1.8099              

(X_U5B.x_lm158.11)  -15.9210          (X_U5B.x_lm158.12)  -16.0000              

(X_U5B.x_lm158.13)    1.7823          (X_U5B.x_lm158.14)    1.8099              

(X_U5B.x_lm158.53)   14.5000          (X_U5B.x_lm158.54)  -15.3500              

(X_U5B.x_lm158.90)   40.6130          (X_U5B.x_lm158.91)   40.0000              

(X_U5B.x_lm158.92)  -40.0000          (X_U5B.x_lm158.99)    0.0000              

(X_U6A.x_lm158.10)   11.1070          (X_U6A.x_lm158.11)  -15.9620              

(X_U6A.x_lm158.12)  -15.9630          (X_U6A.x_lm158.13)   11.0940              

(X_U6A.x_lm158.14)   11.0940          (X_U6A.x_lm158.53)   14.5000              

(X_U6A.x_lm158.54)  -15.3500          (X_U6A.x_lm158.90)   -1.4211              

(X_U6A.x_lm158.91)   40.0000          (X_U6A.x_lm158.92)  -40.0000              

(X_U6A.x_lm158.99)    0.0000          




    VOLTAGE SOURCE CURRENTS
    NAME         CURRENT

    V_V1        -5.850E-02
    V_V2         1.769E-02
    V_V3        -2.985E+00
    X_U4A.x_lm158.vb  -5.425E-09
    X_U4A.x_lm158.vc   1.166E-11
    X_U4A.x_lm158.ve   2.029E-11
    X_U4A.x_lm158.vlim   5.462E-04
    X_U4A.x_lm158.vlp  -3.945E-11
    X_U4A.x_lm158.vln  -4.055E-11
    X_U4B.x_lm158.vb  -6.584E-09
    X_U4B.x_lm158.vc   1.109E-11
    X_U4B.x_lm158.ve   2.086E-11
    X_U4B.x_lm158.vlim   1.117E-03
    X_U4B.x_lm158.vlp  -3.888E-11
    X_U4B.x_lm158.vln  -4.112E-11
    X_U5A.x_lm158.vb  -2.129E-09
    X_U5A.x_lm158.vc   1.333E-11
    X_U5A.x_lm158.ve   1.862E-11
    X_U5A.x_lm158.vlim  -5.463E-04
    X_U5A.x_lm158.vlp  -4.055E-11
    X_U5A.x_lm158.vln  -3.946E-11
    X_U5B.x_lm158.vb  -1.484E-05
    X_U5B.x_lm158.vc  -1.635E-03
    X_U5B.x_lm158.ve   3.268E-11
    X_U5B.x_lm158.vlim   4.061E-02
    X_U5B.x_lm158.vlp   1.563E-05
    X_U5B.x_lm158.vln  -8.062E-11
    X_U6A.x_lm158.vb  -1.959E-08
    X_U6A.x_lm158.vc   4.000E-12
    X_U6A.x_lm158.ve   2.795E-11
    X_U6A.x_lm158.vlim  -1.421E-03
    X_U6A.x_lm158.vlp  -4.142E-11
[...]

(X_U4A.x_lm158.12)  -15.9610          (X_U4A.x_lm158.13)    3.4302              

(X_U4A.x_lm158.14)    3.4303          (X_U4A.x_lm158.53)   14.5000              

(X_U4A.x_lm158.54)  -15.3500          (X_U4A.x_lm158.90)   -3.5218              

(X_U4A.x_lm158.91)   40.0000          (X_U4A.x_lm158.92)  -40.0000              

(X_U4A.x_lm158.99)    0.0000          (X_U4B.x_lm158.10)   10.0670              

(X_U4B.x_lm158.11)  -15.9620          (X_U4B.x_lm158.12)  -15.9630              

(X_U4B.x_lm158.13)   10.0540          (X_U4B.x_lm158.14)   10.0540              

(X_U4B.x_lm158.53)   14.5000          (X_U4B.x_lm158.54)  -15.3500              

(X_U4B.x_lm158.90)    3.1019          (X_U4B.x_lm158.91)   40.0000              

(X_U4B.x_lm158.92)  -40.0000          (X_U4B.x_lm158.99)    0.0000              

(X_U5A.x_lm158.10)    6.9651          (X_U5A.x_lm158.11)  -15.9610              

(X_U5A.x_lm158.12)  -15.9620          (X_U5A.x_lm158.13)    6.9516              

(X_U5A.x_lm158.14)    6.9518          (X_U5A.x_lm158.53)   14.5000              

(X_U5A.x_lm158.54)  -15.3500          (X_U5A.x_lm158.90)    3.5217              

(X_U5A.x_lm158.91)   40.0000          (X_U5A.x_lm158.92)  -40.0000              

(X_U5A.x_lm158.99)    0.0000          (X_U5B.x_lm158.10)    3.1334              

(X_U5B.x_lm158.11)  -16.0000          (X_U5B.x_lm158.12)  -15.9220              

(X_U5B.x_lm158.13)    3.1334          (X_U5B.x_lm158.14)    3.1060              

(X_U5B.x_lm158.53)   14.5000          (X_U5B.x_lm158.54)  -15.3500              

(X_U5B.x_lm158.90)  -40.6100          (X_U5B.x_lm158.91)   40.0000              

(X_U5B.x_lm158.92)  -40.0000          (X_U5B.x_lm158.99)    0.0000              

(X_U6A.x_lm158.10)   11.1070          (X_U6A.x_lm158.11)  -15.9620              

(X_U6A.x_lm158.12)  -15.9630          (X_U6A.x_lm158.13)   11.0940              

(X_U6A.x_lm158.14)   11.0940          (X_U6A.x_lm158.53)   14.5000              

(X_U6A.x_lm158.54)  -15.3500          (X_U6A.x_lm158.90)    8.0064              

(X_U6A.x_lm158.91)   40.0000          (X_U6A.x_lm158.92)  -40.0000              

(X_U6A.x_lm158.99)    0.0000          




    VOLTAGE SOURCE CURRENTS
    NAME         CURRENT

    V_V1        -2.698E-02
    V_V2        -1.491E-02
    V_V3        -2.985E+00
    X_U4A.x_lm158.vb  -4.843E-09
    X_U4A.x_lm158.vc   1.166E-11
    X_U4A.x_lm158.ve   2.029E-11
    X_U4A.x_lm158.vlim  -3.522E-03
    X_U4A.x_lm158.vlp  -4.352E-11
    X_U4A.x_lm158.vln  -3.648E-11
    X_U4B.x_lm158.vb  -1.828E-08
    X_U4B.x_lm158.vc   5.040E-12
    X_U4B.x_lm158.ve   2.691E-11
    X_U4B.x_lm158.vlim   3.102E-03
    X_U4B.x_lm158.vlp  -3.690E-11
    X_U4B.x_lm158.vln  -4.311E-11
    X_U5A.x_lm158.vb  -2.610E-08
    X_U5A.x_lm158.vc   9.228E-13
    X_U5A.x_lm158.ve   3.103E-11
    X_U5A.x_lm158.vlim   3.522E-03
    X_U5A.x_lm158.vlp  -3.648E-11
    X_U5A.x_lm158.vln  -4.353E-11
    X_U5B.x_lm158.vb   1.480E-05
    X_U5B.x_lm158.vc   3.066E-11
    X_U5B.x_lm158.ve  -3.260E-02
    X_U5B.x_lm158.vlim  -4.061E-02
    X_U5B.x_lm158.vlp  -8.061E-11
    X_U5B.x_lm158.vln   1.403E-05
    X_U6A.x_lm158.vb  -2.094E-08
    X_U6A.x_lm158.vc   4.000E-12
    X_U6A.x_lm158.ve   2.795E-11
    X_U6A.x_lm158.vlim   8.006E-03
    X_U6A.x_lm158.vlp  -3.199E-11
    X_U6A.x_lm158.vln  -4.801E-11

    TOTAL POWER DISSIPATION   4.80E+01  WATTS


**** 05/22/23 23:04:21 **** PSpice 22.1.0 (6 October 2022) **** ID# 0 ********

 ** Profile: "SCHEMATIC1-simulare_oglinda"  [ c:\users\tedy_\desktop\pcad\proiect_oglinda-pspicefiles\schematic1\simulare_oglinda.sim


 ****     INITIAL TRANSIENT SOLUTION       TEMPERATURE =   27.000 DEG C

 ****     CURRENT STEP                     PARAM R =   13.2000E+03


******************************************************************************



 NODE   VOLTAGE     NODE   VOLTAGE     NODE   VOLTAGE     NODE   VOLTAGE


(  VCC)   16.0000  ( -VCC)  -16.0000  ( OUT1)    9.5085  (VREF1)    2.8367      

(VREF2)   10.5010  (N00078)     .6442 (N01425)    9.5078 (N01705)    6.3900     

(N01718)   13.6740 (N02012)    2.8369 (N02883)    6.3905 (N07458)    2.4946     

(N07462)  -16.1610 (N07710)   10.5020 (N08448)   16.0000 (N08576)  -16.1610     

(N09718)   16.0000 (N152060)  -16.1610                                          

(X_U4A.x_lm158.6)-483.8E-06           (X_U4A.x_lm158.7)    2.6590               

(X_U4A.x_lm158.8)    2.6590           (X_U4A.x_lm158.9)    0.0000               

(X_U4B.x_lm158.6)    -.0018           (X_U4B.x_lm158.7)    9.6637               

(X_U4B.x_lm158.8)    9.6637           (X_U4B.x_lm158.9)    0.0000               

(X_U5A.x_lm158.6)    -.0026           (X_U5A.x_lm158.7)   13.8520               

(X_U5A.x_lm158.8)   13.8520           (X_U5A.x_lm158.9)    0.0000               

(X_U5B.x_lm158.6)    1.4798           (X_U5B.x_lm158.7)  -18.1910               

(X_U5B.x_lm158.8)  -18.1910           (X_U5B.x_lm158.9)    0.0000               

(X_U6A.x_lm158.6)    -.0021           (X_U6A.x_lm158.7)   10.9010               

(X_U6A.x_lm158.8)   10.9010           (X_U6A.x_lm158.9)    0.0000               

(X_U4A.x_lm158.10)    3.4439          (X_U4A.x_lm158.11)  -15.9610              

(X_U4A.x_lm158.12)  -15.9610          (X_U4A.x_lm158.13)    3.4302              

(X_U4A.x_lm158.14)    3.4303          (X_U4A.x_lm158.53)   14.5000              

(X_U4A.x_lm158.54)  -15.3500          (X_U4A.x_lm158.90)   -3.5533              

(X_U4A.x_lm158.91)   40.0000          (X_U4A.x_lm158.92)  -40.0000              

(X_U4A.x_lm158.99)    0.0000          (X_U4B.x_lm158.10)   10.1140              

(X_U4B.x_lm158.11)  -15.9620          (X_U4B.x_lm158.12)  -15.9630              

(X_U4B.x_lm158.13)   10.1010          (X_U4B.x_lm158.14)   10.1010              

(X_U4B.x_lm158.53)   14.5000          (X_U4B.x_lm158.54)  -15.3500              

(X_U4B.x_lm158.90)    3.1173          (X_U4B.x_lm158.91)   40.0000              

(X_U4B.x_lm158.92)  -40.0000          (X_U4B.x_lm158.99)    0.0000              

(X_U5A.x_lm158.10)    6.9967          (X_U5A.x_lm158.11)  -15.9610              

(X_U5A.x_lm158.12)  -15.9620          (X_U5A.x_lm158.13)    6.9831              

(X_U5A.x_lm158.14)    6.9833          (X_U5A.x_lm158.53)   14.5000              

(X_U5A.x_lm158.54)  -15.3500          (X_U5A.x_lm158.90)    3.5533              

(X_U5A.x_lm158.91)   40.0000          (X_U5A.x_lm158.92)  -40.0000              

(X_U5A.x_lm158.99)    0.0000          (X_U5B.x_lm158.10)    3.1334              

(X_U5B.x_lm158.11)  -16.0000          (X_U5B.x_lm158.12)  -15.9220              

(X_U5B.x_lm158.13)    3.1334          (X_U5B.x_lm158.14)    3.1060              

(X_U5B.x_lm158.53)   14.5000          (X_U5B.x_lm158.54)  -15.3500              

(X_U5B.x_lm158.90)  -40.6100          (X_U5B.x_lm158.91)   40.0000              

(X_U5B.x_lm158.92)  -40.0000          (X_U5B.x_lm158.99)    0.0000              

(X_U6A.x_lm158.10)   11.1070          (X_U6A.x_lm158.11)  -15.9620              

(X_U6A.x_lm158.12)  -15.9630          (X_U6A.x_lm158.13)   11.0940              

(X_U6A.x_lm158.14)   11.0940          (X_U6A.x_lm158.53)   14.5000              

(X_U6A.x_lm158.54)  -15.3500          (X_U6A.x_lm158.90)    8.0064              

(X_U6A.x_lm158.91)   40.0000          (X_U6A.x_lm158.92)  -40.0000              

(X_U6A.x_lm158.99)    0.0000          




    VOLTAGE SOURCE CURRENTS
    NAME         CURRENT

    V_V1        -2.699E-02
    V_V2        -1.491E-02
    V_V3        -2.985E+00
    X_U4A.x_lm158.vb  -4.838E-09
    X_U4A.x_lm158.vc   1.166E-11
    X_U4A.x_lm158.ve   2.029E-11
    X_U4A.x_lm158.vlim  -3.553E-03
    X_U4A.x_lm158.vlp  -4.355E-11
    X_U4A.x_lm158.vln  -3.645E-11
    X_U4B.x_lm158.vb  -1.837E-08
    X_U4B.x_lm158.vc   4.993E-12
    X_U4B.x_lm158.ve   2.696E-11
    X_U4B.x_lm158.vlim   3.117E-03
    X_U4B.x_lm158.vlp  -3.688E-11
    X_U4B.x_lm158.vln  -4.312E-11
    X_U5A.x_lm158.vb  -2.629E-08
    X_U5A.x_lm158.vc   8.266E-13
    X_U5A.x_lm158.ve   3.113E-11
    X_U5A.x_lm158.vlim   3.553E-03
    X_U5A.x_lm158.vlp  -3.645E-11
    X_U5A.x_lm158.vln  -4.356E-11
    X_U5B.x_lm158.vb   1.480E-05
    X_U5B.x_lm158.vc   3.066E-11
    X_U5B.x_lm158.ve  -3.260E-02
    X_U5B.x_lm158.vlim  -4.061E-02
    X_U5B.x_lm158.vlp  -8.061E-11
    X_U5B.x_lm158.vln   1.403E-05
    X_U6A.x_lm158.vb  -2.094E-08
    X_U6A.x_lm158.vc   4.000E-12
    X_U6A.x_lm158.ve   2.795E-11
    X_U6A.x_lm158.vlim   8.006E-03
    X_U6A.x_lm158.vlp  -3.199E-11
    X_U6A.x_lm158.vln  -4.801E-11

    TOTAL POWER DISSIPATION   4.80E+01  WATTS


**** 05/22/23 23:04:21 **** PSpice 22.1.0 (6 October 2022) **** ID# 0 ********

 ** Profile: "SCHEMATIC1-simulare_oglinda"  [ c:\users\tedy_\desktop\pcad\proiect_oglinda-pspicefiles\schematic1\simulare_oglinda.sim


 ****     INITIAL TRANSIENT SOLUTION       TEMPERATURE =   27.000 DEG C

 ****     CURRENT STEP                     PARAM R =   13.1000E+03


******************************************************************************



 NODE   VOLTAGE     NODE   VOLTAGE     NODE   VOLTAGE     NODE   VOLTAGE


(  VCC)   16.0000  ( -VCC)  -16.0000  ( OUT1)    9.5555  (VREF1)    2.8367      

(VREF2)   10.5010  (N00078)     .6442 (N01425)    9.5548 (N01705)    6.4216     

(N01718)   13.7700 (N02012)    2.8369 (N02883)    6.4221 (N07458)    2.4946     

(N07462)  -16.1610 (N07710)   10.5020 (N08448)   16.0000 (N08576)  -16.1610     

(N09718)   16.0000 (N152060)  -16.1610                                          

(X_U4A.x_lm158.6)-483.4E-06           (X_U4A.x_lm158.7)    2.6574               

(X_U4A.x_lm158.8)    2.6574           (X_U4A.x_lm158.9)    0.0000               

(X_U4B.x_lm158.6)    -.0018           (X_U4B.x_lm158.7)    9.7114               

(X_U4B.x_lm158.8)    9.7114           (X_U4B.x_lm158.9)    0.0000               

(X_U5A.x_lm158.6)    -.0026           (X_U5A.x_lm158.7)   13.9500               

(X_U5A.x_lm158.8)   13.9500           (X_U5A.x_lm158.9)    0.0000               

(X_U5B.x_lm158.6)    1.4798           (X_U5B.x_lm158.7)  -18.1910               

(X_U5B.x_lm158.8)  -18.1910           (X_U5B.x_lm158.9)    0.0000               

(X_U6A.x_lm158.6)    -.0021           (X_U6A.x_lm158.7)   10.9010               

(X_U6A.x_lm158.8)   10.9010           (X_U6A.x_lm158.9)    0.0000               

(X_U4A.x_lm158.10)    3.4439          (X_U4A.x_lm158.11)  -15.9610              

(X_U4A.x_lm158.12)  -15.9610          (X_U4A.x_lm158.13)    3.4302              

(X_U4A.x_lm158.14)    3.4303          (X_U4A.x_lm158.53)   14.5000              

(X_U4A.x_lm158.54)  -15.3500          (X_U4A.x_lm158.90)   -3.5849              

(X_U4A.x_lm158.91)   40.0000          (X_U4A.x_lm158.92)  -40.0000              

(X_U4A.x_lm158.99)    0.0000          (X_U4B.x_lm158.10)   10.1610              

(X_U4B.x_lm158.11)  -15.9620          (X_U4B.x_lm158.12)  -15.9630              

(X_U4B.x_lm158.13)   10.1480          (X_U4B.x_lm158.14)   10.1480              

(X_U4B.x_lm158.53)   14.5000          (X_U4B.x_lm158.54)  -15.3500              

(X_U4B.x_lm158.90)    3.1326          (X_U4B.x_lm158.91)   40.0000              

(X_U4B.x_lm158.92)  -40.0000          (X_U4B.x_lm158.99)    0.0000              

(X_U5A.x_lm158.10)    7.0282          (X_U5A.x_lm158.11)  -15.9610              

(X_U5A.x_lm158.12)  -15.9620          (X_U5A.x_lm158.13)    7.0147              

(X_U5A.x_lm158.14)    7.0149          (X_U5A.x_lm158.53)   14.5000              

(X_U5A.x_lm158.54)  -15.3500          (X_U5A.x_lm158.90)    3.5848              

(X_U5A.x_lm158.91)   40.0000          (X_U5A.x_lm158.92)  -40.0000              

(X_U5A.x_lm158.99)    0.0000          (X_U5B.x_lm158.10)    3.1334              

(X_U5B.x_lm158.11)  -16.0000          (X_U5B.x_lm158.12)  -15.9220              

(X_U5B.x_lm158.13)    3.1334          (X_U5B.x_lm158.14)    3.1060              

(X_U5B.x_lm158.53)   14.5000          (X_U5B.x_lm158.54)  -15.3500              

(X_U5B.x_lm158.90)  -40.6100          (X_U5B.x_lm158.91)   40.0000              

(X_U5B.x_lm158.92)  -40.0000          (X_U5B.x_lm158.99)    0.0000              

(X_U6A.x_lm158.10)   11.1070          (X_U6A.x_lm158.11)  -15.9620              

(X_U6A.x_lm158.12)  -15.9630          (X_U6A.x_lm158.13)   11.0940              

(X_U6A.x_lm158.14)   11.0940          (X_U6A.x_lm158.53)   14.5000              

(X_U6A.x_lm158.54)  -15.3500          (X_U6A.x_lm158.90)    8.0064              

(X_U6A.x_lm158.91)   40.0000          (X_U6A.x_lm158.92)  -40.0000              

(X_U6A.x_lm158.99)    0.0000          




    VOLTAGE SOURCE CURRENTS
    NAME         CURRENT

    V_V1        -2.699E-02
    V_V2        -1.491E-02
    V_V3        -2.985E+00
    X_U4A.x_lm158.vb  -4.834E-09
    X_U4A.x_lm158.vc   1.166E-11
    X_U4A.x_lm158.ve   2.029E-11
    X_U4A.x_lm158.vlim  -3.585E-03
    X_U4A.x_lm158.vlp  -4.359E-11
    X_U4A.x_lm158.vln  -3.642E-11
    X_U4B.x_lm158.vb  -1.846E-08
    X_U4B.x_lm158.vc   4.946E-12
    X_U4B.x_lm158.ve   2.701E-11
    X_U4B.x_lm158.vlim   3.133E-03
    X_U4B.x_lm158.vlp  -3.687E-11
    X_U4B.x_lm158.vln  -4.314E-11
    X_U5A.x_lm158.vb  -2.647E-08
    X_U5A.x_lm158.vc   7.304E-13
    X_U5A.x_lm158.ve   3.122E-11
    X_U5A.x_lm158.vlim   3.585E-03
    X_U5A.x_lm158.vlp  -3.642E-11
    X_U5A.x_lm158.vln  -4.359E-11
    X_U5B.x_lm158.vb   1.480E-05
    X_U5B.x_lm158.vc   3.066E-11
    X_U5B.x_lm158.ve  -3.260E-02
    X_U5B.x_lm158.vlim  -4.061E-02
    X_U5B.x_lm158.vlp  -8.061E-11
    X_U5B.x_lm158.vln   1.403E-05
    X_U6A.x_lm158.vb  -2.094E-08
    X_U6A.x_lm158.vc   4.000E-12
    X_U6A.x_lm158.ve   2.795E-11
    X_U6A.x_lm158.vlim   8.006E-03
    X_U6A.x_lm158.vlp  -3.199E-11
    X_U6A.x_lm158.vln  -4.801E-11

    TOTAL POWER DISSIPATION   4.80E+01  WATTS


**** 05/22/23 23:04:21 **** PSpice 22.1.0 (6 October 2022) **** ID# 0 ********

 ** Profile: "SCHEMATIC1-simulare_oglinda"  [ c:\users\tedy_\desktop\pcad\proiect_oglinda-pspicefiles\schematic1\simulare_oglinda.sim


 ****     INITIAL TRANSIENT SOLUTION       TEMPERATURE =   27.000 DEG C

 ****     CURRENT STEP                     PARAM R =   13.0000E+03


******************************************************************************



 NODE   VOLTAGE     NODE   VOLTAGE     NODE   VOLTAGE     NODE   VOLTAGE


(  VCC)   16.0000  ( -VCC)  -16.0000  ( OUT1)    9.6025  (VREF1)    2.8367      

(VREF2)   10.5010  (N00078)     .6442 (N01425)    9.6018 (N01705)    6.4531     

(N01718)   13.8670 (N02012)    2.8369 (N02883)    6.4537 (N07458)    2.4946     

(N07462)  -16.1610 (N07710)   10.5020 (N08448)   16.0000 (N08576)  -16.1610     

(N09718)   16.0000 (N152060)  -16.1610                                          

(X_U4A.x_lm158.6)-482.9E-06           (X_U4A.x_lm158.7)    2.6559               

(X_U4A.x_lm158.8)    2.6559           (X_U4A.x_lm158.9)    0.0000               

(X_U4B.x_lm158.6)    -.0019           (X_U4B.x_lm158.7)    9.7592               

(X_U4B.x_lm158.8)    9.7592           (X_U4B.x_lm158.9)    0.0000               

(X_U5A.x_lm158.6)    -.0027           (X_U5A.x_lm158.7)   14.0480               

(X_U5A.x_lm158.8)   14.0480           (X_U5A.x_lm158.9)    0.0000               

(X_U5B.x_lm158.6)    1.4798           (X_U5B.x_lm158.7)  -18.1910               

(X_U5B.x_lm158.8)  -18.1910           (X_U5B.x_lm158.9)    0.0000               

(X_U6A.x_lm158.6)    -.0021           (X_U6A.x_lm158.7)   10.9010               

(X_U6A.x_lm158.8)   10.9010           (X_U6A.x_lm158.9)    0.0000               

(X_U4A.x_lm158.10)    3.4439          (X_U4A.x_lm158.11)  -15.9610              

(X_U4A.x_lm158.12)  -15.9610          (X_U4A.x_lm158.13)    3.4302              

(X_U4A.x_lm158.14)    3.4303          (X_U4A.x_lm158.53)   14.5000              

(X_U4A.x_lm158.54)  -15.3500          (X_U4A.x_lm158.90)   -3.6165              

(X_U4A.x_lm158.91)   40.0000          (X_U4A.x_lm158.92)  -40.0000              

(X_U4A.x_lm158.99)    0.0000          (X_U4B.x_lm158.10)   10.2080              

(X_U4B.x_lm158.11)  -15.9620          (X_U4B.x_lm158.12)  -15.9630              

(X_U4B.x_lm158.13)   10.1950          (X_U4B.x_lm158.14)   10.1950              

(X_U4B.x_lm158.53)   14.5000          (X_U4B.x_lm158.54)  -15.3500              

(X_U4B.x_lm158.90)    3.1481          (X_U4B.x_lm158.91)   40.0000              

(X_U4B.x_lm158.92)  -40.0000          (X_U4B.x_lm158.99)    0.0000              

(X_U5A.x_lm158.10)    7.0598          (X_U5A.x_lm158.11)  -15.9610              

(X_U5A.x_lm158.12)  -15.9620          (X_U5A.x_lm158.13)    7.0463              

(X_U5A.x_lm158.14)    7.0465          (X_U5A.x_lm158.53)   14.5000              

(X_U5A.x_lm158.54)  -15.3500          (X_U5A.x_lm158.90)    3.6164              

(X_U5A.x_lm158.91)   40.0000          (X_U5A.x_lm158.92)  -40.0000              

(X_U5A.x_lm158.99)    0.0000          (X_U5B.x_lm158.10)    3.1334              

(X_U5B.x_lm158.11)  -16.0000          (X_U5B.x_lm158.12)  -15.9220              

(X_U5B.x_lm158.13)    3.1334          (X_U5B.x_lm158.14)    3.1060              

(X_U5B.x_lm158.53)   14.5000          (X_U5B.x_lm158.54)  -15.3500              

(X_U5B.x_lm158.90)  -40.6100          (X_U5B.x_lm158.91)   40.0000              

(X_U5B.x_lm158.92)  -40.0000          (X_U5B.x_lm158.99)    0.0000              

(X_U6A.x_lm158.10)   11.1070          (X_U6A.x_lm158.11)  -15.9620              

(X_U6A.x_lm158.12)  -15.9630          (X_U6A.x_lm158.13)   11.0940              

(X_U6A.x_lm158.14)   11.0940          (X_U6A.x_lm158.53)   14.5000              

(X_U6A.x_lm158.54)  -15.3500          (X_U6A.x_lm158.90)    8.0064              

(X_U6A.x_lm158.91)   40.0000          (X_U6A.x_lm158.92)  -40.0000              

(X_U6A.x_lm158.99)    0.0000          




    VOLTAGE SOURCE CURRENTS
    NAME         CURRENT

    V_V1        -2.699E-02
    V_V2        -1.491E-02
    V_V3        -2.985E+00
    X_U4A.x_lm158.vb  -4.829E-09
    X_U4A.x_lm158.vc   1.166E-11
    X_U4A.x_lm158.ve   2.029E-11
    X_U4A.x_lm158.vlim  -3.616E-03
    X_U4A.x_lm158.vlp  -4.362E-11
    X_U4A.x_lm158.vln  -3.639E-11
    X_U4B.x_lm158.vb  -1.855E-08
    X_U4B.x_lm158.vc   4.899E-12
    X_U4B.x_lm158.ve   2.705E-11
    X_U4B.x_lm158.vlim   3.148E-03
    X_U4B.x_lm158.vlp  -3.685E-11
    X_U4B.x_lm158.vln  -4.315E-11
    X_U5A.x_lm158.vb  -2.666E-08
    X_U5A.x_lm158.vc   6.340E-13
    X_U5A.x_lm158.ve   3.132E-11
    X_U5A.x_lm158.vlim   3.616E-03
    X_U5A.x_lm158.vlp  -3.638E-11
    X_U5A.x_lm158.vln  -4.362E-11
    X_U5B.x_lm158.vb   1.480E-05
    X_U5B.x_lm158.vc   3.066E-11
    X_U5B.x_lm158.ve  -3.260E-02
    X_U5B.x_lm158.vlim  -4.061E-02
    X_U5B.x_lm158.vlp  -8.061E-11
    X_U5B.x_lm158.vln   1.403E-05
    X_U6A.x_lm158.vb  -2.094E-08
    X_U6A.x_lm158.vc   4.000E-12
    X_U6A.x_lm158.ve   2.795E-11
    X_U6A.x_lm158.vlim   8.006E-03
    X_U6A.x_lm158.vlp  -3.199E-11
    X_U6A.x_lm158.vln  -4.801E-11

    TOTAL POWER DISSIPATION   4.80E+01  WATTS



          JOB CONCLUDED

**** 05/22/23 23:04:21 **** PSpice 22.1.0 (6 October 2022) **** ID# 0 ********

 ** Profile: "SCHEMATIC1-simulare_oglinda"  [ c:\users\tedy_\desktop\pcad\proiect_oglinda-pspicefiles\schematic1\simulare_oglinda.sim


 ****     JOB STATISTICS SUMMARY

 ****     CURRENT STEP                     PARAM R =   13.0000E+03


******************************************************************************



  Total job time (using Solver 1)   =        4.78
